<?xml version="1.0" encoding="UTF-8"?>

<!-- generated on 2023-07-12 23:51:35.493621 by randomTrips.py v1_17_0+0908-fc813c74af8
  options: -n ./configurations/osm.net.xml -e 50 -p 0.5 -r ./configurations/./Rounds/test1/static_trip.rou.xml
-->

<routes xmlns:xsi="http://www.w3.org/2001/XMLSchema-instance" xsi:noNamespaceSchemaLocation="http://sumo.dlr.de/xsd/routes_file.xsd">
    <trip id="0" depart="0.00" from="442372093#0" to="-15422879#3"/>
    <trip id="1" depart="0.50" from="232045940#0" to="15302679"/>
    <trip id="2" depart="1.00" from="744870403#0" to="597602686#0"/>
    <trip id="3" depart="1.50" from="957134130#0" to="-755435065#2"/>
    <trip id="4" depart="2.00" from="423487359#0" to="-15435154#5"/>
    <trip id="5" depart="2.50" from="1128434407#0" to="423487443#0-AddedOffRampEdge"/>
    <trip id="6" depart="3.00" from="-15428593#14" to="1128434401"/>
    <trip id="7" depart="3.50" from="478554548#1" to="423487450#1"/>
    <trip id="8" depart="4.00" from="1128434407#0" to="423505999#3"/>
    <trip id="9" depart="4.50" from="846817704#0" to="-1128434402#6"/>
    <trip id="10" depart="5.00" from="846817703" to="597602687#0"/>
    <trip id="11" depart="5.50" from="312824884#0" to="104727118#0"/>
    <trip id="12" depart="6.00" from="981165357#0" to="312824882#3"/>
    <trip id="13" depart="6.50" from="-755435067#3" to="-755435068"/>
    <trip id="14" depart="7.00" from="908435480#0" to="423506031#0-AddedOffRampEdge"/>
    <trip id="15" depart="7.50" from="846817703" to="691318132#0"/>
    <trip id="16" depart="8.00" from="423487448#4" to="987713877#0"/>
    <trip id="17" depart="8.50" from="423487294" to="423487451#0"/>
    <trip id="18" depart="9.00" from="846857038#0" to="442372081#5"/>
    <trip id="19" depart="9.50" from="908436860#0" to="423505994#0"/>
    <trip id="20" depart="10.00" from="601725845#0" to="-268118792#10"/>
    <trip id="21" depart="10.50" from="1182933856#0" to="268118792#14"/>
    <trip id="22" depart="11.00" from="-746893259#2" to="15389730#0"/>
    <trip id="23" depart="11.50" from="-808380062#13" to="260359943#0"/>
    <trip id="24" depart="12.00" from="442372090-AddedOffRampEdge" to="423487258#0"/>
    <trip id="25" depart="12.50" from="423487259#0" to="1128434405#2"/>
    <trip id="26" depart="13.00" from="15458116" to="968816562#28"/>
    <trip id="27" depart="13.50" from="478554548#0" to="442372081#0"/>
    <trip id="28" depart="14.00" from="1081590609" to="691318132#0"/>
    <trip id="29" depart="14.50" from="1072974806" to="423487296"/>
    <trip id="30" depart="15.00" from="994901460#0" to="463776120#0"/>
    <trip id="31" depart="15.50" from="423487451#0" to="597602686#16"/>
    <trip id="32" depart="16.00" from="908435479#0" to="808587435#0"/>
    <trip id="33" depart="16.50" from="15302679" to="-15435154#5"/>
    <trip id="34" depart="17.00" from="295292533" to="232045944#0"/>
    <trip id="35" depart="17.50" from="1128434405#2" to="968816564#0"/>
    <trip id="36" depart="18.00" from="954632488#0" to="290026885"/>
    <trip id="37" depart="18.50" from="478554548#3" to="423487306#0"/>
    <trip id="38" depart="19.00" from="962896467#3" to="423487429#0"/>
    <trip id="39" depart="19.50" from="15458116" to="15428593#0"/>
    <trip id="40" depart="20.00" from="423487452#0" to="201688966"/>
    <trip id="41" depart="20.50" from="423505996#0" to="962816052#0"/>
    <trip id="42" depart="21.00" from="423487307#0" to="1128434407#0"/>
    <trip id="43" depart="21.50" from="994901463#0" to="423487444#0"/>
    <trip id="44" depart="22.00" from="-755435067#3" to="-268118792#13"/>
    <trip id="45" depart="22.50" from="-968816562#41" to="442372090-AddedOffRampEdge"/>
    <trip id="46" depart="23.00" from="808587438#0" to="423487375#0"/>
    <trip id="47" depart="23.50" from="-601725845#9" to="423487299#0"/>
    <trip id="48" depart="24.00" from="994901462#0" to="423487448#4"/>
    <trip id="49" depart="24.50" from="987713877#0" to="908436862#0"/>
    <trip id="50" depart="25.00" from="-1128434406#2" to="683889359#8"/>
    <trip id="51" depart="25.50" from="597602686#13" to="423487449#0-AddedOffRampEdge"/>
    <trip id="52" depart="26.00" from="15458116" to="478554548#0"/>
    <trip id="53" depart="26.50" from="-968816562#41" to="423487392#0"/>
    <trip id="54" depart="27.00" from="423487419#2" to="978715537#0"/>
    <trip id="55" depart="27.50" from="954632488#0" to="201688966"/>
    <trip id="56" depart="28.00" from="423487442#1" to="1081590611"/>
    <trip id="57" depart="28.50" from="962896467#0" to="954632488#0"/>
    <trip id="58" depart="29.00" from="287525280#15" to="463776120#0"/>
    <trip id="59" depart="29.50" from="423506031#0-AddedOffRampEdge" to="104717227"/>
    <trip id="60" depart="30.00" from="755435068" to="423487449#0-AddedOffRampEdge"/>
    <trip id="61" depart="30.50" from="808587434" to="423487448#4"/>
    <trip id="62" depart="31.00" from="-1026416105#10" to="295292535"/>
    <trip id="63" depart="31.50" from="-15389730#20" to="968816561#0"/>
    <trip id="64" depart="32.00" from="954632489" to="889075098#0"/>
    <trip id="65" depart="32.50" from="290026883" to="-601725845#19"/>
    <trip id="66" depart="33.00" from="954632489" to="978715535#2"/>
    <trip id="67" depart="33.50" from="-746893261#1" to="423487438#1"/>
    <trip id="68" depart="34.00" from="-683889359#6" to="755435068"/>
    <trip id="69" depart="34.50" from="808587431#0" to="1026416106#0"/>
    <trip id="70" depart="35.00" from="423487434#0-AddedOffRampEdge" to="423487450#3"/>
    <trip id="71" depart="35.50" from="15458116" to="954632488#0"/>
    <trip id="72" depart="36.00" from="423487359#0" to="1128434405#2"/>
    <trip id="73" depart="36.50" from="423487449#0" to="691318132#0"/>
    <trip id="74" depart="37.00" from="1128434401" to="290026884"/>
    <trip id="75" depart="37.50" from="994901462#0" to="478554548#3"/>
    <trip id="76" depart="38.00" from="423487392#0" to="423487447#0"/>
    <trip id="77" depart="38.50" from="1013862586#7" to="15302679"/>
    <trip id="78" depart="39.00" from="312824884#0" to="423505999#3"/>
    <trip id="79" depart="39.50" from="15302679" to="1130568089#0"/>
    <trip id="80" depart="40.00" from="-683889359#6" to="442372093#0"/>
    <trip id="81" depart="40.50" from="15302679" to="962816053#0"/>
    <trip id="82" depart="41.00" from="908436860#0" to="-683889359#6"/>
    <trip id="83" depart="41.50" from="15366554#9" to="597528981#0"/>
    <trip id="84" depart="42.00" from="1128434406#0" to="1026416107"/>
    <trip id="85" depart="42.50" from="968816562#28" to="423487463"/>
    <trip id="86" depart="43.00" from="423487434#0" to="808587438#0"/>
    <trip id="87" depart="43.50" from="846817703" to="1081590614#0"/>
    <trip id="88" depart="44.00" from="-755435068" to="423487386#0"/>
    <trip id="89" depart="44.50" from="423487359#0" to="423487432"/>
    <trip id="90" depart="45.00" from="691318132#9" to="597602685#0"/>
    <trip id="91" depart="45.50" from="988583021#0" to="-808380062#13"/>
    <trip id="92" depart="46.00" from="423487307#0-AddedOffRampEdge" to="312824884#0"/>
    <trip id="93" depart="46.50" from="908436860#0" to="15428593#8"/>
    <trip id="94" depart="47.00" from="1081590614#0" to="423487419#2"/>
    <trip id="95" depart="47.50" from="423487359#0" to="260359943#0"/>
    <trip id="96" depart="48.00" from="15415651#0" to="966038677#0"/>
    <trip id="97" depart="48.50" from="423487416#0" to="908436862#0"/>
    <trip id="98" depart="49.00" from="423487450#1" to="-268118792#23"/>
    <trip id="99" depart="49.50" from="994901463#0" to="889075099#0"/>
</routes>
