<?xml version="1.0" ?>
<routes xmlns:xsi="&quot;http://www.w3.org/2001/XMLSchema-instance&quot;" xsi:noNamespaceSchemaLocation="&quot;http://sumo.dlr.de/xsd/routes_file.xsd&quot;">
	<vehicle id="0" depart="1">
		<route edges="962816052#0"/>
	</vehicle>
	<vehicle id="1" depart="2">
		<route edges="-232045940#5"/>
	</vehicle>
	<vehicle id="2" depart="6">
		<route edges="968816562#0"/>
	</vehicle>
	<vehicle id="3" depart="6">
		<route edges="1081590614#0"/>
	</vehicle>
	<vehicle id="4" depart="7">
		<route edges="746893260"/>
	</vehicle>
	<vehicle id="5" depart="9">
		<route edges="310973089#0"/>
	</vehicle>
	<vehicle id="6" depart="12">
		<route edges="423487448#1"/>
	</vehicle>
	<vehicle id="7" depart="13">
		<route edges="15435154#0"/>
	</vehicle>
	<vehicle id="8" depart="20">
		<route edges="423487294"/>
	</vehicle>
	<vehicle id="9" depart="24">
		<route edges="601725847#0"/>
	</vehicle>
	<vehicle id="10" depart="27">
		<route edges="994901463#0"/>
	</vehicle>
	<vehicle id="11" depart="28">
		<route edges="423487419#2"/>
	</vehicle>
	<vehicle id="12" depart="30">
		<route edges="755435068"/>
	</vehicle>
	<vehicle id="13" depart="38">
		<route edges="985219577"/>
	</vehicle>
	<vehicle id="14" depart="45">
		<route edges="423487419#2"/>
	</vehicle>
	<vehicle id="15" depart="46">
		<route edges="260359943#0"/>
	</vehicle>
	<vehicle id="16" depart="48">
		<route edges="908436860#0"/>
	</vehicle>
	<vehicle id="17" depart="48">
		<route edges="597602687#0"/>
	</vehicle>
	<vehicle id="18" depart="62">
		<route edges="-968816562#41"/>
	</vehicle>
	<vehicle id="19" depart="70">
		<route edges="-601725845#19"/>
	</vehicle>
	<vehicle id="20" depart="70">
		<route edges="1081590613#0"/>
	</vehicle>
	<vehicle id="21" depart="73">
		<route edges="442372082"/>
	</vehicle>
	<vehicle id="22" depart="73">
		<route edges="962896468#0"/>
	</vehicle>
	<vehicle id="23" depart="74">
		<route edges="423506027"/>
	</vehicle>
	<vehicle id="24" depart="76">
		<route edges="423487448#0"/>
	</vehicle>
	<vehicle id="25" depart="77">
		<route edges="15458116"/>
	</vehicle>
	<vehicle id="26" depart="78">
		<route edges="423487447#2"/>
	</vehicle>
	<vehicle id="27" depart="79">
		<route edges="-15422879#3"/>
	</vehicle>
	<vehicle id="28" depart="79">
		<route edges="-601725845#9"/>
	</vehicle>
	<vehicle id="29" depart="81">
		<route edges="746893257#0"/>
	</vehicle>
	<vehicle id="30" depart="82">
		<route edges="-968816562#41"/>
	</vehicle>
	<vehicle id="31" depart="84">
		<route edges="423487448#4"/>
	</vehicle>
	<vehicle id="32" depart="86">
		<route edges="-268118792#23"/>
	</vehicle>
	<vehicle id="33" depart="89">
		<route edges="846813575#0"/>
	</vehicle>
	<vehicle id="34" depart="90">
		<route edges="290026879"/>
	</vehicle>
	<vehicle id="35" depart="94">
		<route edges="597602686#13"/>
	</vehicle>
	<vehicle id="36" depart="95">
		<route edges="-1128434402#6"/>
	</vehicle>
	<vehicle id="37" depart="100">
		<route edges="260359943#0"/>
	</vehicle>
	<vehicle id="38" depart="100">
		<route edges="1081590611"/>
	</vehicle>
	<vehicle id="39" depart="101">
		<route edges="597602686#0"/>
	</vehicle>
	<vehicle id="40" depart="102">
		<route edges="962816052#1"/>
	</vehicle>
	<vehicle id="41" depart="104">
		<route edges="-15440930#4"/>
	</vehicle>
	<vehicle id="42" depart="106">
		<route edges="-808380062#13"/>
	</vehicle>
	<vehicle id="43" depart="108">
		<route edges="1128434401"/>
	</vehicle>
	<vehicle id="44" depart="110">
		<route edges="260359943#0"/>
	</vehicle>
	<vehicle id="45" depart="115">
		<route edges="423487450#0"/>
	</vehicle>
	<vehicle id="46" depart="119">
		<route edges="423487254"/>
	</vehicle>
	<vehicle id="47" depart="119">
		<route edges="954632489"/>
	</vehicle>
	<vehicle id="48" depart="119">
		<route edges="908436863#0"/>
	</vehicle>
	<vehicle id="49" depart="119">
		<route edges="442372081#5"/>
	</vehicle>
	<vehicle id="50" depart="120">
		<route edges="846813575#0"/>
	</vehicle>
	<vehicle id="51" depart="121">
		<route edges="808587431#0"/>
	</vehicle>
	<vehicle id="52" depart="122">
		<route edges="-1128434401"/>
	</vehicle>
	<vehicle id="53" depart="122">
		<route edges="1013862585#7"/>
	</vehicle>
	<vehicle id="54" depart="123">
		<route edges="442372093#0"/>
	</vehicle>
	<vehicle id="55" depart="126">
		<route edges="597602686#16"/>
	</vehicle>
	<vehicle id="56" depart="126">
		<route edges="597602686#9"/>
	</vehicle>
	<vehicle id="57" depart="127">
		<route edges="423487450#1"/>
	</vehicle>
	<vehicle id="58" depart="128">
		<route edges="104717227"/>
	</vehicle>
	<vehicle id="59" depart="129">
		<route edges="423487444#0-AddedOffRampEdge"/>
	</vehicle>
	<vehicle id="60" depart="130">
		<route edges="1042572824#0"/>
	</vehicle>
	<vehicle id="61" depart="131">
		<route edges="15458116"/>
	</vehicle>
	<vehicle id="62" depart="131">
		<route edges="423487302#0"/>
	</vehicle>
	<vehicle id="63" depart="132">
		<route edges="-15366554#7"/>
	</vehicle>
	<vehicle id="64" depart="132">
		<route edges="290026884"/>
	</vehicle>
	<vehicle id="65" depart="135">
		<route edges="597602686#0"/>
	</vehicle>
	<vehicle id="66" depart="142">
		<route edges="423487416#0"/>
	</vehicle>
	<vehicle id="67" depart="144">
		<route edges="962896468#0"/>
	</vehicle>
	<vehicle id="68" depart="144">
		<route edges="260359943#0"/>
	</vehicle>
	<vehicle id="69" depart="145">
		<route edges="201688966"/>
	</vehicle>
	<vehicle id="70" depart="145">
		<route edges="755435067#0"/>
	</vehicle>
	<vehicle id="71" depart="145">
		<route edges="601725845#21"/>
	</vehicle>
	<vehicle id="72" depart="145">
		<route edges="423487419#0"/>
	</vehicle>
	<vehicle id="73" depart="149">
		<route edges="846857035#0"/>
	</vehicle>
	<vehicle id="74" depart="151">
		<route edges="957134130#0"/>
	</vehicle>
	<vehicle id="75" depart="152">
		<route edges="-755435065#2"/>
	</vehicle>
	<vehicle id="76" depart="153">
		<route edges="268118792#14"/>
	</vehicle>
	<vehicle id="77" depart="153">
		<route edges="423487346#0"/>
	</vehicle>
	<vehicle id="78" depart="156">
		<route edges="-1128434406#2"/>
	</vehicle>
	<vehicle id="79" depart="156">
		<route edges="423487436#0"/>
	</vehicle>
	<vehicle id="80" depart="159">
		<route edges="808587433#0"/>
	</vehicle>
	<vehicle id="81" depart="161">
		<route edges="691318132#0"/>
	</vehicle>
	<vehicle id="82" depart="165">
		<route edges="846813573#2"/>
	</vehicle>
	<vehicle id="83" depart="169">
		<route edges="908435479#0"/>
	</vehicle>
	<vehicle id="84" depart="173">
		<route edges="987713877#0"/>
	</vehicle>
	<vehicle id="85" depart="173">
		<route edges="985219577"/>
	</vehicle>
	<vehicle id="86" depart="175">
		<route edges="423487442#1"/>
	</vehicle>
	<vehicle id="87" depart="176">
		<route edges="-968816562#27"/>
	</vehicle>
	<vehicle id="88" depart="177">
		<route edges="908435481#0"/>
	</vehicle>
	<vehicle id="89" depart="177">
		<route edges="423487438#1"/>
	</vehicle>
	<vehicle id="90" depart="178">
		<route edges="15428593#0"/>
	</vehicle>
	<vehicle id="91" depart="178">
		<route edges="-968816562#41"/>
	</vehicle>
	<vehicle id="92" depart="180">
		<route edges="854649126"/>
	</vehicle>
	<vehicle id="93" depart="180">
		<route edges="423487432"/>
	</vehicle>
	<vehicle id="94" depart="188">
		<route edges="423487259#0"/>
	</vehicle>
	<vehicle id="95" depart="189">
		<route edges="601725847#0"/>
	</vehicle>
	<vehicle id="96" depart="189">
		<route edges="1117149005#0"/>
	</vehicle>
	<vehicle id="97" depart="189">
		<route edges="423487346#0"/>
	</vehicle>
	<vehicle id="98" depart="191">
		<route edges="-683889359#6"/>
	</vehicle>
	<vehicle id="99" depart="192">
		<route edges="954632488#0"/>
	</vehicle>
	<vehicle id="100" depart="193">
		<route edges="978715537#0"/>
	</vehicle>
	<vehicle id="101" depart="194">
		<route edges="1081590611"/>
	</vehicle>
	<vehicle id="102" depart="197">
		<route edges="962816052#0"/>
	</vehicle>
	<vehicle id="103" depart="198">
		<route edges="962896467#3"/>
	</vehicle>
	<vehicle id="104" depart="198">
		<route edges="994901462#0"/>
	</vehicle>
	<vehicle id="105" depart="200">
		<route edges="978715535#2"/>
	</vehicle>
	<vehicle id="106" depart="204">
		<route edges="985219577"/>
	</vehicle>
	<vehicle id="107" depart="204">
		<route edges="846855219#0"/>
	</vehicle>
	<vehicle id="108" depart="205">
		<route edges="15440930#1"/>
	</vehicle>
	<vehicle id="109" depart="207">
		<route edges="232089532"/>
	</vehicle>
	<vehicle id="110" depart="210">
		<route edges="423505999#3"/>
	</vehicle>
	<vehicle id="111" depart="212">
		<route edges="1117149005#0"/>
	</vehicle>
	<vehicle id="112" depart="212">
		<route edges="423506027-AddedOffRampEdge"/>
	</vehicle>
	<vehicle id="113" depart="213">
		<route edges="15302679"/>
	</vehicle>
	<vehicle id="114" depart="224">
		<route edges="423487462"/>
	</vehicle>
	<vehicle id="115" depart="225">
		<route edges="854649126"/>
	</vehicle>
	<vehicle id="116" depart="229">
		<route edges="597528979#0"/>
	</vehicle>
	<vehicle id="117" depart="231">
		<route edges="854649126"/>
	</vehicle>
	<vehicle id="118" depart="233">
		<route edges="423487294"/>
	</vehicle>
	<vehicle id="119" depart="233">
		<route edges="423505994#0"/>
	</vehicle>
	<vehicle id="120" depart="233">
		<route edges="423487452#3"/>
	</vehicle>
	<vehicle id="121" depart="234">
		<route edges="962896467#0"/>
	</vehicle>
	<vehicle id="122" depart="235">
		<route edges="994901460#0"/>
	</vehicle>
	<vehicle id="123" depart="237">
		<route edges="423487443#0-AddedOffRampEdge"/>
	</vehicle>
	<vehicle id="124" depart="238">
		<route edges="988583021#3"/>
	</vehicle>
	<vehicle id="125" depart="238">
		<route edges="442372093#0"/>
	</vehicle>
	<vehicle id="126" depart="238">
		<route edges="968816560"/>
	</vehicle>
	<vehicle id="127" depart="240">
		<route edges="423487448#1"/>
	</vehicle>
	<vehicle id="128" depart="242">
		<route edges="908435480#0"/>
	</vehicle>
	<vehicle id="129" depart="242">
		<route edges="15366554#0"/>
	</vehicle>
	<vehicle id="130" depart="242">
		<route edges="423505994#0"/>
	</vehicle>
	<vehicle id="131" depart="243">
		<route edges="287525280#0"/>
	</vehicle>
	<vehicle id="132" depart="243">
		<route edges="423487258#0"/>
	</vehicle>
	<vehicle id="133" depart="244">
		<route edges="597602686#23"/>
	</vehicle>
	<vehicle id="134" depart="246">
		<route edges="755435067#0"/>
	</vehicle>
	<vehicle id="135" depart="248">
		<route edges="978715537#0"/>
	</vehicle>
	<vehicle id="136" depart="249">
		<route edges="846817704#0"/>
	</vehicle>
	<vehicle id="137" depart="249">
		<route edges="423487463"/>
	</vehicle>
	<vehicle id="138" depart="250">
		<route edges="1055874086#0"/>
	</vehicle>
	<vehicle id="139" depart="250">
		<route edges="423487302#0"/>
	</vehicle>
	<vehicle id="140" depart="251">
		<route edges="312824884#0"/>
	</vehicle>
	<vehicle id="141" depart="252">
		<route edges="15366554#0"/>
	</vehicle>
	<vehicle id="142" depart="254">
		<route edges="423487448#4"/>
	</vehicle>
	<vehicle id="143" depart="257">
		<route edges="15428593#8"/>
	</vehicle>
	<vehicle id="144" depart="257">
		<route edges="808587435#0"/>
	</vehicle>
	<vehicle id="145" depart="261">
		<route edges="423487309"/>
	</vehicle>
	<vehicle id="146" depart="266">
		<route edges="423487443#0-AddedOffRampEdge"/>
	</vehicle>
	<vehicle id="147" depart="267">
		<route edges="1081590614#0"/>
	</vehicle>
	<vehicle id="148" depart="268">
		<route edges="423487375#0"/>
	</vehicle>
	<vehicle id="149" depart="269">
		<route edges="808587437#0"/>
	</vehicle>
	<vehicle id="150" depart="269">
		<route edges="15438674#0"/>
	</vehicle>
	<vehicle id="151" depart="270">
		<route edges="908436860#0"/>
	</vehicle>
	<vehicle id="152" depart="274">
		<route edges="15440930#1"/>
	</vehicle>
	<vehicle id="153" depart="277">
		<route edges="746893259#0"/>
	</vehicle>
	<vehicle id="154" depart="279">
		<route edges="808587431#0"/>
	</vehicle>
	<vehicle id="155" depart="281">
		<route edges="987713878"/>
	</vehicle>
	<vehicle id="156" depart="286">
		<route edges="423487442#0"/>
	</vehicle>
	<vehicle id="157" depart="289">
		<route edges="-15435154#5"/>
	</vehicle>
	<vehicle id="158" depart="292">
		<route edges="232045940#0"/>
	</vehicle>
	<vehicle id="159" depart="293">
		<route edges="1031308683#0"/>
	</vehicle>
	<vehicle id="160" depart="302">
		<route edges="442372093#0"/>
	</vehicle>
	<vehicle id="161" depart="304">
		<route edges="746893257#0"/>
	</vehicle>
	<vehicle id="162" depart="305">
		<route edges="978715536"/>
	</vehicle>
	<vehicle id="163" depart="305">
		<route edges="442372081#5"/>
	</vehicle>
	<vehicle id="164" depart="305">
		<route edges="846857035#0"/>
	</vehicle>
	<vehicle id="165" depart="308">
		<route edges="287525280#15"/>
	</vehicle>
	<vehicle id="166" depart="308">
		<route edges="846857036#0"/>
	</vehicle>
	<vehicle id="167" depart="309">
		<route edges="968816562#28"/>
	</vehicle>
	<vehicle id="168" depart="314">
		<route edges="954632729"/>
	</vehicle>
	<vehicle id="169" depart="320">
		<route edges="-601725845#9"/>
	</vehicle>
	<vehicle id="170" depart="328">
		<route edges="15415651#0"/>
	</vehicle>
	<vehicle id="171" depart="328">
		<route edges="746893257#0"/>
	</vehicle>
	<vehicle id="172" depart="328">
		<route edges="985219577"/>
	</vehicle>
	<vehicle id="173" depart="329">
		<route edges="908435480#0"/>
	</vehicle>
	<vehicle id="174" depart="329">
		<route edges="232045940#0"/>
	</vehicle>
	<vehicle id="175" depart="331">
		<route edges="597602686#13"/>
	</vehicle>
	<vehicle id="176" depart="332">
		<route edges="1081589810"/>
	</vehicle>
	<vehicle id="177" depart="333">
		<route edges="954632489"/>
	</vehicle>
	<vehicle id="178" depart="333">
		<route edges="423487386#0"/>
	</vehicle>
	<vehicle id="179" depart="333">
		<route edges="268118792#14"/>
	</vehicle>
	<vehicle id="180" depart="334">
		<route edges="908435479#0"/>
	</vehicle>
	<vehicle id="181" depart="336">
		<route edges="15302679"/>
	</vehicle>
	<vehicle id="182" depart="337">
		<route edges="1128434405#2"/>
	</vehicle>
	<vehicle id="183" depart="338">
		<route edges="962816051"/>
	</vehicle>
	<vehicle id="184" depart="338">
		<route edges="691318132#9"/>
	</vehicle>
	<vehicle id="185" depart="342">
		<route edges="1081590609"/>
	</vehicle>
	<vehicle id="186" depart="347">
		<route edges="423487444#0-AddedOffRampEdge"/>
	</vehicle>
	<vehicle id="187" depart="350">
		<route edges="-968816562#27"/>
	</vehicle>
	<vehicle id="188" depart="357">
		<route edges="442372081#0"/>
	</vehicle>
	<vehicle id="189" depart="363">
		<route edges="-601725845#9"/>
	</vehicle>
	<vehicle id="190" depart="364">
		<route edges="808587433#0"/>
	</vehicle>
	<vehicle id="191" depart="365">
		<route edges="15415651#0"/>
	</vehicle>
	<vehicle id="192" depart="365">
		<route edges="962896467#3"/>
	</vehicle>
	<vehicle id="193" depart="372">
		<route edges="442372082"/>
	</vehicle>
	<vehicle id="194" depart="373">
		<route edges="312824885#3"/>
	</vehicle>
	<vehicle id="195" depart="374">
		<route edges="442372093#0"/>
	</vehicle>
	<vehicle id="196" depart="376">
		<route edges="423487421#0"/>
	</vehicle>
	<vehicle id="197" depart="376">
		<route edges="15302679"/>
	</vehicle>
	<vehicle id="198" depart="383">
		<route edges="1026416107"/>
	</vehicle>
	<vehicle id="199" depart="383">
		<route edges="423487462"/>
	</vehicle>
	<vehicle id="200" depart="385">
		<route edges="423506031#0"/>
	</vehicle>
	<vehicle id="201" depart="387">
		<route edges="1042572824#0"/>
	</vehicle>
	<vehicle id="202" depart="388">
		<route edges="-15366554#7"/>
	</vehicle>
	<vehicle id="203" depart="389">
		<route edges="908436859#0"/>
	</vehicle>
	<vehicle id="204" depart="389">
		<route edges="1026416107"/>
	</vehicle>
	<vehicle id="205" depart="397">
		<route edges="15435154#0"/>
	</vehicle>
	<vehicle id="206" depart="398">
		<route edges="908435482#0"/>
	</vehicle>
	<vehicle id="207" depart="399">
		<route edges="1031308682"/>
	</vehicle>
	<vehicle id="208" depart="402">
		<route edges="908436860#0"/>
	</vehicle>
	<vehicle id="209" depart="407">
		<route edges="-1128434406#2"/>
	</vehicle>
	<vehicle id="210" depart="408">
		<route edges="423487346#0"/>
	</vehicle>
	<vehicle id="211" depart="410">
		<route edges="-15438674#3"/>
	</vehicle>
	<vehicle id="212" depart="415">
		<route edges="597602686#0"/>
	</vehicle>
	<vehicle id="213" depart="418">
		<route edges="994901463#0"/>
	</vehicle>
	<vehicle id="214" depart="421">
		<route edges="442372082"/>
	</vehicle>
	<vehicle id="215" depart="422">
		<route edges="423505992#0"/>
	</vehicle>
	<vehicle id="216" depart="433">
		<route edges="423487293#0"/>
	</vehicle>
	<vehicle id="217" depart="435">
		<route edges="987713877#0"/>
	</vehicle>
	<vehicle id="218" depart="437">
		<route edges="290026885"/>
	</vehicle>
	<vehicle id="219" depart="440">
		<route edges="908435482#0"/>
	</vehicle>
	<vehicle id="220" depart="441">
		<route edges="-15366554#7"/>
	</vehicle>
	<vehicle id="221" depart="445">
		<route edges="808587438#0"/>
	</vehicle>
	<vehicle id="222" depart="449">
		<route edges="104727118#0"/>
	</vehicle>
	<vehicle id="223" depart="450">
		<route edges="423505999#3"/>
	</vehicle>
	<vehicle id="224" depart="454">
		<route edges="423487436#0-AddedOffRampEdge"/>
	</vehicle>
	<vehicle id="225" depart="461">
		<route edges="423506027-AddedOffRampEdge"/>
	</vehicle>
	<vehicle id="226" depart="461">
		<route edges="423505999#0"/>
	</vehicle>
	<vehicle id="227" depart="461">
		<route edges="442372081#0"/>
	</vehicle>
	<vehicle id="228" depart="462">
		<route edges="597602686#0"/>
	</vehicle>
	<vehicle id="229" depart="464">
		<route edges="423487419#2"/>
	</vehicle>
	<vehicle id="230" depart="464">
		<route edges="423487448#1"/>
	</vehicle>
	<vehicle id="231" depart="471">
		<route edges="423487432"/>
	</vehicle>
	<vehicle id="232" depart="473">
		<route edges="442372093#1"/>
	</vehicle>
	<vehicle id="233" depart="473">
		<route edges="312824885#0"/>
	</vehicle>
	<vehicle id="234" depart="474">
		<route edges="746893259#0"/>
	</vehicle>
	<vehicle id="235" depart="476">
		<route edges="442372090"/>
	</vehicle>
	<vehicle id="236" depart="477">
		<route edges="-1128434401"/>
	</vehicle>
	<vehicle id="237" depart="479">
		<route edges="1072974806"/>
	</vehicle>
	<vehicle id="238" depart="480">
		<route edges="15458116"/>
	</vehicle>
	<vehicle id="239" depart="481">
		<route edges="104727143#0"/>
	</vehicle>
	<vehicle id="240" depart="486">
		<route edges="755435068"/>
	</vehicle>
	<vehicle id="241" depart="487">
		<route edges="478554548#3"/>
	</vehicle>
	<vehicle id="242" depart="489">
		<route edges="15389730#22"/>
	</vehicle>
	<vehicle id="243" depart="489">
		<route edges="15438674#0"/>
	</vehicle>
	<vehicle id="244" depart="491">
		<route edges="312824885#3"/>
	</vehicle>
	<vehicle id="245" depart="492">
		<route edges="-268118792#23"/>
	</vehicle>
	<vehicle id="246" depart="493">
		<route edges="1081590614#0"/>
	</vehicle>
	<vehicle id="247" depart="495">
		<route edges="15389730#22"/>
	</vehicle>
	<vehicle id="248" depart="496">
		<route edges="15302679"/>
	</vehicle>
	<vehicle id="249" depart="501">
		<route edges="423487443#0-AddedOffRampEdge"/>
	</vehicle>
	<vehicle id="250" depart="502">
		<route edges="290026879"/>
	</vehicle>
	<vehicle id="251" depart="502">
		<route edges="962816052#0"/>
	</vehicle>
	<vehicle id="252" depart="503">
		<route edges="442372090-AddedOffRampEdge"/>
	</vehicle>
	<vehicle id="253" depart="509">
		<route edges="968816563#0"/>
	</vehicle>
	<vehicle id="254" depart="514">
		<route edges="1081590613#0"/>
	</vehicle>
	<vehicle id="255" depart="517">
		<route edges="846817704#0"/>
	</vehicle>
	<vehicle id="256" depart="517">
		<route edges="423487259#0"/>
	</vehicle>
	<vehicle id="257" depart="519">
		<route edges="423487462"/>
	</vehicle>
	<vehicle id="258" depart="520">
		<route edges="597602686#29"/>
	</vehicle>
	<vehicle id="259" depart="522">
		<route edges="601725847#0"/>
	</vehicle>
	<vehicle id="260" depart="528">
		<route edges="423487438#0"/>
	</vehicle>
	<vehicle id="261" depart="528">
		<route edges="988583021#0"/>
	</vehicle>
	<vehicle id="262" depart="530">
		<route edges="268118792#14"/>
	</vehicle>
	<vehicle id="263" depart="530">
		<route edges="846857035#0"/>
	</vehicle>
	<vehicle id="264" depart="532">
		<route edges="423487451#0"/>
	</vehicle>
	<vehicle id="265" depart="533">
		<route edges="423487294"/>
	</vehicle>
	<vehicle id="266" depart="534">
		<route edges="423487354#0"/>
	</vehicle>
	<vehicle id="267" depart="534">
		<route edges="-755435067#3"/>
	</vehicle>
	<vehicle id="268" depart="535">
		<route edges="597528970#0"/>
	</vehicle>
	<vehicle id="269" depart="543">
		<route edges="-1128434407#1"/>
	</vehicle>
	<vehicle id="270" depart="543">
		<route edges="846817704#0"/>
	</vehicle>
	<vehicle id="271" depart="545">
		<route edges="954632490#0"/>
	</vehicle>
	<vehicle id="272" depart="546">
		<route edges="808587434"/>
	</vehicle>
	<vehicle id="273" depart="546">
		<route edges="423505996#0"/>
	</vehicle>
	<vehicle id="274" depart="551">
		<route edges="968816563#0"/>
	</vehicle>
	<vehicle id="275" depart="553">
		<route edges="423487419#0"/>
	</vehicle>
	<vehicle id="276" depart="554">
		<route edges="1182933856#0"/>
	</vehicle>
	<vehicle id="277" depart="556">
		<route edges="962816053#0"/>
	</vehicle>
	<vehicle id="278" depart="558">
		<route edges="978715537#0"/>
	</vehicle>
	<vehicle id="279" depart="559">
		<route edges="-846855219#3"/>
	</vehicle>
	<vehicle id="280" depart="561">
		<route edges="423487434#0"/>
	</vehicle>
	<vehicle id="281" depart="563">
		<route edges="-746893261#1"/>
	</vehicle>
	<vehicle id="282" depart="564">
		<route edges="312824884#0"/>
	</vehicle>
	<vehicle id="283" depart="565">
		<route edges="15389730#0"/>
	</vehicle>
	<vehicle id="284" depart="566">
		<route edges="962816052#1"/>
	</vehicle>
	<vehicle id="285" depart="568">
		<route edges="1055874086#0"/>
	</vehicle>
	<vehicle id="286" depart="568">
		<route edges="312824884#0"/>
	</vehicle>
	<vehicle id="287" depart="569">
		<route edges="423487354#0"/>
	</vehicle>
	<vehicle id="288" depart="572">
		<route edges="746893258#0"/>
	</vehicle>
	<vehicle id="289" depart="576">
		<route edges="988583021#0"/>
	</vehicle>
	<vehicle id="290" depart="580">
		<route edges="597528970#0"/>
	</vehicle>
	<vehicle id="291" depart="584">
		<route edges="478554548#1"/>
	</vehicle>
	<vehicle id="292" depart="585">
		<route edges="-15389730#32"/>
	</vehicle>
	<vehicle id="293" depart="585">
		<route edges="908435480#0"/>
	</vehicle>
	<vehicle id="294" depart="589">
		<route edges="601725848"/>
	</vehicle>
	<vehicle id="295" depart="594">
		<route edges="908436862#0"/>
	</vehicle>
	<vehicle id="296" depart="597">
		<route edges="423505992#0"/>
	</vehicle>
	<vehicle id="297" depart="597">
		<route edges="597602687#0"/>
	</vehicle>
	<vehicle id="298" depart="598">
		<route edges="908435482#0"/>
	</vehicle>
	<vehicle id="299" depart="600">
		<route edges="601725845#21"/>
	</vehicle>
</routes>
