<?xml version="1.0" ?>
<routes xmlns:xsi="&quot;http://www.w3.org/2001/XMLSchema-instance&quot;" xsi:noNamespaceSchemaLocation="&quot;http://sumo.dlr.de/xsd/routes_file.xsd&quot;">
	<vehicle id="0" depart="5">
		<route edges="423487294"/>
	</vehicle>
	<vehicle id="1" depart="5">
		<route edges="423487450#3"/>
	</vehicle>
	<vehicle id="2" depart="8">
		<route edges="1013862586#0"/>
	</vehicle>
	<vehicle id="3" depart="10">
		<route edges="854649126"/>
	</vehicle>
	<vehicle id="4" depart="11">
		<route edges="15440930#1"/>
	</vehicle>
	<vehicle id="5" depart="18">
		<route edges="597602686#16"/>
	</vehicle>
	<vehicle id="6" depart="19">
		<route edges="423487392#0"/>
	</vehicle>
	<vehicle id="7" depart="20">
		<route edges="15440930#1"/>
	</vehicle>
	<vehicle id="8" depart="22">
		<route edges="597528970#0"/>
	</vehicle>
	<vehicle id="9" depart="25">
		<route edges="423487421#0"/>
	</vehicle>
	<vehicle id="10" depart="27">
		<route edges="423487438#0"/>
	</vehicle>
	<vehicle id="11" depart="30">
		<route edges="423487307#0"/>
	</vehicle>
	<vehicle id="12" depart="35">
		<route edges="423487259#0"/>
	</vehicle>
	<vehicle id="13" depart="36">
		<route edges="290026884"/>
	</vehicle>
	<vehicle id="14" depart="36">
		<route edges="691318132#9"/>
	</vehicle>
	<vehicle id="15" depart="41">
		<route edges="988583021#3"/>
	</vehicle>
	<vehicle id="16" depart="42">
		<route edges="423505992#0"/>
	</vehicle>
	<vehicle id="17" depart="42">
		<route edges="423487463"/>
	</vehicle>
	<vehicle id="18" depart="47">
		<route edges="423487434#0"/>
	</vehicle>
	<vehicle id="19" depart="50">
		<route edges="442372081#11"/>
	</vehicle>
	<vehicle id="20" depart="53">
		<route edges="1128434403#0"/>
	</vehicle>
	<vehicle id="21" depart="54">
		<route edges="423487419#2-AddedOffRampEdge"/>
	</vehicle>
	<vehicle id="22" depart="56">
		<route edges="962896467#3"/>
	</vehicle>
	<vehicle id="23" depart="60">
		<route edges="232045940#0"/>
	</vehicle>
	<vehicle id="24" depart="64">
		<route edges="104727143#0"/>
	</vehicle>
	<vehicle id="25" depart="64">
		<route edges="260359943#0"/>
	</vehicle>
	<vehicle id="26" depart="65">
		<route edges="1042572824#0"/>
	</vehicle>
	<vehicle id="27" depart="68">
		<route edges="310973089#0"/>
	</vehicle>
	<vehicle id="28" depart="73">
		<route edges="-268118792#13"/>
	</vehicle>
	<vehicle id="29" depart="73">
		<route edges="442372081#5"/>
	</vehicle>
	<vehicle id="30" depart="80">
		<route edges="846857039#0"/>
	</vehicle>
	<vehicle id="31" depart="80">
		<route edges="597602686#16"/>
	</vehicle>
	<vehicle id="32" depart="82">
		<route edges="683976549#0"/>
	</vehicle>
	<vehicle id="33" depart="85">
		<route edges="-968816562#41"/>
	</vehicle>
	<vehicle id="34" depart="85">
		<route edges="-15366554#7"/>
	</vehicle>
	<vehicle id="35" depart="85">
		<route edges="15428593#8"/>
	</vehicle>
	<vehicle id="36" depart="87">
		<route edges="746893260"/>
	</vehicle>
	<vehicle id="37" depart="87">
		<route edges="423487359#0"/>
	</vehicle>
	<vehicle id="38" depart="88">
		<route edges="746893258#0"/>
	</vehicle>
	<vehicle id="39" depart="90">
		<route edges="1072974806"/>
	</vehicle>
	<vehicle id="40" depart="90">
		<route edges="-968816562#41"/>
	</vehicle>
	<vehicle id="41" depart="92">
		<route edges="1055874086#2"/>
	</vehicle>
	<vehicle id="42" depart="99">
		<route edges="962896467#4"/>
	</vehicle>
	<vehicle id="43" depart="100">
		<route edges="601725845#21"/>
	</vehicle>
	<vehicle id="44" depart="101">
		<route edges="423487450#3"/>
	</vehicle>
	<vehicle id="45" depart="103">
		<route edges="423487354#0"/>
	</vehicle>
	<vehicle id="46" depart="104">
		<route edges="-601725845#19"/>
	</vehicle>
	<vehicle id="47" depart="105">
		<route edges="442372090-AddedOffRampEdge"/>
	</vehicle>
	<vehicle id="48" depart="106">
		<route edges="423505994#0"/>
	</vehicle>
	<vehicle id="49" depart="109">
		<route edges="1031308683#0"/>
	</vehicle>
	<vehicle id="50" depart="111">
		<route edges="-15440930#4"/>
	</vehicle>
	<vehicle id="51" depart="112">
		<route edges="15438674#0"/>
	</vehicle>
	<vehicle id="52" depart="113">
		<route edges="442372081#0"/>
	</vehicle>
	<vehicle id="53" depart="115">
		<route edges="15366554#9"/>
	</vehicle>
	<vehicle id="54" depart="118">
		<route edges="442372081#0"/>
	</vehicle>
	<vehicle id="55" depart="119">
		<route edges="1081590611"/>
	</vehicle>
	<vehicle id="56" depart="120">
		<route edges="987713877#0"/>
	</vehicle>
	<vehicle id="57" depart="125">
		<route edges="808587438#0"/>
	</vehicle>
	<vehicle id="58" depart="130">
		<route edges="1055874086#0"/>
	</vehicle>
	<vehicle id="59" depart="131">
		<route edges="691318132#9"/>
	</vehicle>
	<vehicle id="60" depart="132">
		<route edges="-15428593#6"/>
	</vehicle>
	<vehicle id="61" depart="133">
		<route edges="290026884"/>
	</vehicle>
	<vehicle id="62" depart="137">
		<route edges="597602686#9"/>
	</vehicle>
	<vehicle id="63" depart="141">
		<route edges="15302679"/>
	</vehicle>
	<vehicle id="64" depart="147">
		<route edges="597528981#0"/>
	</vehicle>
	<vehicle id="65" depart="152">
		<route edges="908436862#0"/>
	</vehicle>
	<vehicle id="66" depart="155">
		<route edges="15399829#0"/>
	</vehicle>
	<vehicle id="67" depart="157">
		<route edges="104727143#0"/>
	</vehicle>
	<vehicle id="68" depart="158">
		<route edges="746893257#0"/>
	</vehicle>
	<vehicle id="69" depart="158">
		<route edges="268118792#11"/>
	</vehicle>
	<vehicle id="70" depart="181">
		<route edges="-268118792#13"/>
	</vehicle>
	<vehicle id="71" depart="182">
		<route edges="981165359#0"/>
	</vehicle>
	<vehicle id="72" depart="185">
		<route edges="423487429#0"/>
	</vehicle>
	<vehicle id="73" depart="189">
		<route edges="-746893259#2"/>
	</vehicle>
	<vehicle id="74" depart="189">
		<route edges="423487419#2-AddedOffRampEdge"/>
	</vehicle>
	<vehicle id="75" depart="191">
		<route edges="981165357#0"/>
	</vehicle>
	<vehicle id="76" depart="196">
		<route edges="-755435065#2"/>
	</vehicle>
	<vehicle id="77" depart="199">
		<route edges="808587435#0"/>
	</vehicle>
	<vehicle id="78" depart="200">
		<route edges="854649126"/>
	</vehicle>
	<vehicle id="79" depart="200">
		<route edges="-556603473#2"/>
	</vehicle>
	<vehicle id="80" depart="201">
		<route edges="-968816562#41"/>
	</vehicle>
	<vehicle id="81" depart="209">
		<route edges="15438674#0"/>
	</vehicle>
	<vehicle id="82" depart="212">
		<route edges="-755435067#3"/>
	</vehicle>
	<vehicle id="83" depart="212">
		<route edges="808587434"/>
	</vehicle>
	<vehicle id="84" depart="213">
		<route edges="423487259#0"/>
	</vehicle>
	<vehicle id="85" depart="216">
		<route edges="423506031#0"/>
	</vehicle>
	<vehicle id="86" depart="219">
		<route edges="442372093#1"/>
	</vehicle>
	<vehicle id="87" depart="219">
		<route edges="1013862586#0"/>
	</vehicle>
	<vehicle id="88" depart="219">
		<route edges="423487439#0"/>
	</vehicle>
	<vehicle id="89" depart="220">
		<route edges="423487450#0"/>
	</vehicle>
	<vehicle id="90" depart="221">
		<route edges="808587433#0"/>
	</vehicle>
	<vehicle id="91" depart="223">
		<route edges="104727143#0"/>
	</vehicle>
	<vehicle id="92" depart="225">
		<route edges="597528970#0"/>
	</vehicle>
	<vehicle id="93" depart="229">
		<route edges="962816052#0"/>
	</vehicle>
	<vehicle id="94" depart="230">
		<route edges="-15440930#4"/>
	</vehicle>
	<vehicle id="95" depart="231">
		<route edges="808587433#0"/>
	</vehicle>
	<vehicle id="96" depart="233">
		<route edges="968816561#0"/>
	</vehicle>
	<vehicle id="97" depart="239">
		<route edges="808587437#0"/>
	</vehicle>
	<vehicle id="98" depart="243">
		<route edges="-755435067#3"/>
	</vehicle>
	<vehicle id="99" depart="251">
		<route edges="1130568089#0"/>
	</vehicle>
	<vehicle id="100" depart="251">
		<route edges="597528979#0"/>
	</vehicle>
	<vehicle id="101" depart="252">
		<route edges="1081590611-AddedOffRampEdge"/>
	</vehicle>
	<vehicle id="102" depart="253">
		<route edges="15435154#0"/>
	</vehicle>
	<vehicle id="103" depart="254">
		<route edges="746893258#0"/>
	</vehicle>
	<vehicle id="104" depart="260">
		<route edges="15428593#8"/>
	</vehicle>
	<vehicle id="105" depart="262">
		<route edges="-846855219#3"/>
	</vehicle>
	<vehicle id="106" depart="262">
		<route edges="-15458116"/>
	</vehicle>
	<vehicle id="107" depart="266">
		<route edges="-683889359#12"/>
	</vehicle>
	<vehicle id="108" depart="267">
		<route edges="423487254"/>
	</vehicle>
	<vehicle id="109" depart="267">
		<route edges="-15438674#3"/>
	</vehicle>
	<vehicle id="110" depart="272">
		<route edges="-808380062#13"/>
	</vehicle>
	<vehicle id="111" depart="272">
		<route edges="260359943#0"/>
	</vehicle>
	<vehicle id="112" depart="273">
		<route edges="442372082"/>
	</vehicle>
	<vehicle id="113" depart="275">
		<route edges="746893260"/>
	</vehicle>
	<vehicle id="114" depart="275">
		<route edges="988583021#3"/>
	</vehicle>
	<vehicle id="115" depart="277">
		<route edges="846857039#0"/>
	</vehicle>
	<vehicle id="116" depart="278">
		<route edges="968816562#28"/>
	</vehicle>
	<vehicle id="117" depart="283">
		<route edges="1081590609"/>
	</vehicle>
	<vehicle id="118" depart="286">
		<route edges="423487296"/>
	</vehicle>
	<vehicle id="119" depart="291">
		<route edges="478554548#3"/>
	</vehicle>
	<vehicle id="120" depart="295">
		<route edges="290026884"/>
	</vehicle>
	<vehicle id="121" depart="296">
		<route edges="423487436#0-AddedOffRampEdge"/>
	</vehicle>
	<vehicle id="122" depart="298">
		<route edges="962896468#0"/>
	</vehicle>
	<vehicle id="123" depart="304">
		<route edges="1182933856#0"/>
	</vehicle>
	<vehicle id="124" depart="307">
		<route edges="-1128434406#2"/>
	</vehicle>
	<vehicle id="125" depart="308">
		<route edges="908436863#0"/>
	</vehicle>
	<vehicle id="126" depart="308">
		<route edges="597602686#9"/>
	</vehicle>
	<vehicle id="127" depart="327">
		<route edges="1128434401"/>
	</vehicle>
	<vehicle id="128" depart="330">
		<route edges="962816053#0"/>
	</vehicle>
	<vehicle id="129" depart="333">
		<route edges="968816562#28"/>
	</vehicle>
	<vehicle id="130" depart="339">
		<route edges="597528981#0"/>
	</vehicle>
	<vehicle id="131" depart="340">
		<route edges="846857036#0"/>
	</vehicle>
	<vehicle id="132" depart="343">
		<route edges="1182933856#0"/>
	</vehicle>
	<vehicle id="133" depart="347">
		<route edges="846857036#3"/>
	</vehicle>
	<vehicle id="134" depart="348">
		<route edges="423506031#0-AddedOffRampEdge"/>
	</vehicle>
	<vehicle id="135" depart="348">
		<route edges="601725845#21"/>
	</vehicle>
	<vehicle id="136" depart="351">
		<route edges="691318132#9"/>
	</vehicle>
	<vehicle id="137" depart="353">
		<route edges="597528970#0"/>
	</vehicle>
	<vehicle id="138" depart="353">
		<route edges="962896467#0"/>
	</vehicle>
	<vehicle id="139" depart="356">
		<route edges="423487450#3"/>
	</vehicle>
	<vehicle id="140" depart="357">
		<route edges="908436863#0"/>
	</vehicle>
	<vehicle id="141" depart="360">
		<route edges="423505999#3"/>
	</vehicle>
	<vehicle id="142" depart="371">
		<route edges="-15366554#7"/>
	</vehicle>
	<vehicle id="143" depart="371">
		<route edges="597602686#29"/>
	</vehicle>
	<vehicle id="144" depart="381">
		<route edges="423487451#0"/>
	</vehicle>
	<vehicle id="145" depart="385">
		<route edges="423487302#0"/>
	</vehicle>
	<vehicle id="146" depart="389">
		<route edges="846857036#3"/>
	</vehicle>
	<vehicle id="147" depart="389">
		<route edges="295292533"/>
	</vehicle>
	<vehicle id="148" depart="393">
		<route edges="968816563#0"/>
	</vehicle>
	<vehicle id="149" depart="400">
		<route edges="962816053#0"/>
	</vehicle>
</routes>
