<?xml version="1.0" ?>
<routes xmlns:xsi="&quot;http://www.w3.org/2001/XMLSchema-instance&quot;" xsi:noNamespaceSchemaLocation="&quot;http://sumo.dlr.de/xsd/routes_file.xsd&quot;">
	<vehicle id="0" depart="0">
		<route edges="724861791"/>
	</vehicle>
	<vehicle id="1" depart="2">
		<route edges="15422879#0"/>
	</vehicle>
	<vehicle id="2" depart="7">
		<route edges="15389730#0"/>
	</vehicle>
	<vehicle id="3" depart="7">
		<route edges="15428593#8"/>
	</vehicle>
	<vehicle id="4" depart="8">
		<route edges="104727143#0"/>
	</vehicle>
	<vehicle id="5" depart="8">
		<route edges="15435154#0"/>
	</vehicle>
	<vehicle id="6" depart="8">
		<route edges="442372093#0"/>
	</vehicle>
	<vehicle id="7" depart="11">
		<route edges="15415651#0"/>
	</vehicle>
	<vehicle id="8" depart="11">
		<route edges="846817704#0"/>
	</vehicle>
	<vehicle id="9" depart="12">
		<route edges="290026884"/>
	</vehicle>
	<vehicle id="10" depart="12">
		<route edges="1130568089#0"/>
	</vehicle>
	<vehicle id="11" depart="13">
		<route edges="423487438#1"/>
	</vehicle>
	<vehicle id="12" depart="13">
		<route edges="597528979#0"/>
	</vehicle>
	<vehicle id="13" depart="17">
		<route edges="-755435065#2"/>
	</vehicle>
	<vehicle id="14" depart="17">
		<route edges="423506027-AddedOffRampEdge"/>
	</vehicle>
	<vehicle id="15" depart="18">
		<route edges="423487299#0"/>
	</vehicle>
	<vehicle id="16" depart="18">
		<route edges="423487375#0"/>
	</vehicle>
	<vehicle id="17" depart="20">
		<route edges="597602686#0"/>
	</vehicle>
	<vehicle id="18" depart="23">
		<route edges="1128434405#2"/>
	</vehicle>
	<vehicle id="19" depart="23">
		<route edges="478554548#3"/>
	</vehicle>
	<vehicle id="20" depart="25">
		<route edges="962816052#0"/>
	</vehicle>
	<vehicle id="21" depart="25">
		<route edges="-15428593#14"/>
	</vehicle>
	<vehicle id="22" depart="30">
		<route edges="987713877#0"/>
	</vehicle>
	<vehicle id="23" depart="31">
		<route edges="978715536"/>
	</vehicle>
	<vehicle id="24" depart="31">
		<route edges="808587431#0"/>
	</vehicle>
	<vehicle id="25" depart="32">
		<route edges="846857036#0"/>
	</vehicle>
	<vehicle id="26" depart="32">
		<route edges="423487354#0"/>
	</vehicle>
	<vehicle id="27" depart="36">
		<route edges="478554548#3"/>
	</vehicle>
	<vehicle id="28" depart="37">
		<route edges="442372082"/>
	</vehicle>
	<vehicle id="29" depart="40">
		<route edges="423505999#0"/>
	</vehicle>
	<vehicle id="30" depart="40">
		<route edges="981165359#0"/>
	</vehicle>
	<vehicle id="31" depart="40">
		<route edges="15415651#0"/>
	</vehicle>
	<vehicle id="32" depart="41">
		<route edges="908436860#0"/>
	</vehicle>
	<vehicle id="33" depart="43">
		<route edges="312826086"/>
	</vehicle>
	<vehicle id="34" depart="43">
		<route edges="423487354#0"/>
	</vehicle>
	<vehicle id="35" depart="45">
		<route edges="-232045940#5"/>
	</vehicle>
	<vehicle id="36" depart="46">
		<route edges="954632489"/>
	</vehicle>
	<vehicle id="37" depart="46">
		<route edges="478554548#3"/>
	</vehicle>
	<vehicle id="38" depart="47">
		<route edges="601725848"/>
	</vehicle>
	<vehicle id="39" depart="52">
		<route edges="-755435067#3"/>
	</vehicle>
	<vehicle id="40" depart="54">
		<route edges="423487386#0"/>
	</vehicle>
	<vehicle id="41" depart="55">
		<route edges="1026416107"/>
	</vehicle>
	<vehicle id="42" depart="55">
		<route edges="423487450#1"/>
	</vehicle>
	<vehicle id="43" depart="57">
		<route edges="954632489"/>
	</vehicle>
	<vehicle id="44" depart="60">
		<route edges="423487436#0-AddedOffRampEdge"/>
	</vehicle>
	<vehicle id="45" depart="61">
		<route edges="1013862585#7"/>
	</vehicle>
	<vehicle id="46" depart="62">
		<route edges="423487434#0-AddedOffRampEdge"/>
	</vehicle>
	<vehicle id="47" depart="63">
		<route edges="-232045940#5"/>
	</vehicle>
	<vehicle id="48" depart="63">
		<route edges="423487462"/>
	</vehicle>
	<vehicle id="49" depart="64">
		<route edges="-15438674#3"/>
	</vehicle>
	<vehicle id="50" depart="64">
		<route edges="-968816562#27"/>
	</vehicle>
	<vehicle id="51" depart="64">
		<route edges="597602686#0"/>
	</vehicle>
	<vehicle id="52" depart="65">
		<route edges="423487452#3"/>
	</vehicle>
	<vehicle id="53" depart="65">
		<route edges="597602686#29"/>
	</vehicle>
	<vehicle id="54" depart="66">
		<route edges="423487450#3"/>
	</vehicle>
	<vehicle id="55" depart="69">
		<route edges="-15428593#6"/>
	</vehicle>
	<vehicle id="56" depart="70">
		<route edges="908435481#0"/>
	</vehicle>
	<vehicle id="57" depart="71">
		<route edges="423487448#4"/>
	</vehicle>
	<vehicle id="58" depart="71">
		<route edges="746893260"/>
	</vehicle>
	<vehicle id="59" depart="71">
		<route edges="985219577"/>
	</vehicle>
	<vehicle id="60" depart="72">
		<route edges="423487255#0"/>
	</vehicle>
	<vehicle id="61" depart="73">
		<route edges="423506035"/>
	</vehicle>
	<vehicle id="62" depart="77">
		<route edges="755435067#0"/>
	</vehicle>
	<vehicle id="63" depart="78">
		<route edges="1031308683#0-AddedOnRampEdge"/>
	</vehicle>
	<vehicle id="64" depart="78">
		<route edges="478554548#0"/>
	</vehicle>
	<vehicle id="65" depart="78">
		<route edges="962896467#4"/>
	</vehicle>
	<vehicle id="66" depart="79">
		<route edges="423487304#0"/>
	</vehicle>
	<vehicle id="67" depart="80">
		<route edges="978715535#2"/>
	</vehicle>
	<vehicle id="68" depart="81">
		<route edges="908436859#0"/>
	</vehicle>
	<vehicle id="69" depart="81">
		<route edges="15389730#0"/>
	</vehicle>
	<vehicle id="70" depart="81">
		<route edges="994901462#0"/>
	</vehicle>
	<vehicle id="71" depart="82">
		<route edges="-268118792#13"/>
	</vehicle>
	<vehicle id="72" depart="82">
		<route edges="846857035#0"/>
	</vehicle>
	<vehicle id="73" depart="83">
		<route edges="908435481#0"/>
	</vehicle>
	<vehicle id="74" depart="87">
		<route edges="290026885"/>
	</vehicle>
	<vehicle id="75" depart="89">
		<route edges="-601725845#9"/>
	</vehicle>
	<vehicle id="76" depart="89">
		<route edges="954632489"/>
	</vehicle>
	<vehicle id="77" depart="89">
		<route edges="423487432"/>
	</vehicle>
	<vehicle id="78" depart="90">
		<route edges="601725848"/>
	</vehicle>
	<vehicle id="79" depart="92">
		<route edges="746893259#0"/>
	</vehicle>
	<vehicle id="80" depart="92">
		<route edges="442372081#0"/>
	</vehicle>
	<vehicle id="81" depart="92">
		<route edges="601725845#10"/>
	</vehicle>
	<vehicle id="82" depart="92">
		<route edges="-1128434407#1"/>
	</vehicle>
	<vehicle id="83" depart="96">
		<route edges="423487386#0"/>
	</vehicle>
	<vehicle id="84" depart="98">
		<route edges="808587437#0"/>
	</vehicle>
	<vehicle id="85" depart="100">
		<route edges="423487386#0"/>
	</vehicle>
	<vehicle id="86" depart="103">
		<route edges="908436860#0"/>
	</vehicle>
	<vehicle id="87" depart="106">
		<route edges="755435068"/>
	</vehicle>
	<vehicle id="88" depart="106">
		<route edges="423487302#0"/>
	</vehicle>
	<vehicle id="89" depart="106">
		<route edges="290026884"/>
	</vehicle>
	<vehicle id="90" depart="107">
		<route edges="423487412#0"/>
	</vehicle>
	<vehicle id="91" depart="108">
		<route edges="978715535#2"/>
	</vehicle>
	<vehicle id="92" depart="110">
		<route edges="981165358#0"/>
	</vehicle>
	<vehicle id="93" depart="114">
		<route edges="962896467#3"/>
	</vehicle>
	<vehicle id="94" depart="115">
		<route edges="746893258#0"/>
	</vehicle>
	<vehicle id="95" depart="115">
		<route edges="423506035"/>
	</vehicle>
	<vehicle id="96" depart="116">
		<route edges="-746893258#1"/>
	</vehicle>
	<vehicle id="97" depart="121">
		<route edges="442372082"/>
	</vehicle>
	<vehicle id="98" depart="122">
		<route edges="-1128434406#2"/>
	</vehicle>
	<vehicle id="99" depart="123">
		<route edges="908436862#0"/>
	</vehicle>
	<vehicle id="100" depart="124">
		<route edges="981165357#0"/>
	</vehicle>
	<vehicle id="101" depart="125">
		<route edges="-755435067#3"/>
	</vehicle>
	<vehicle id="102" depart="126">
		<route edges="-746893258#1"/>
	</vehicle>
	<vehicle id="103" depart="127">
		<route edges="1081590613#0"/>
	</vehicle>
	<vehicle id="104" depart="127">
		<route edges="-683889359#12"/>
	</vehicle>
	<vehicle id="105" depart="127">
		<route edges="-601725845#19"/>
	</vehicle>
	<vehicle id="106" depart="128">
		<route edges="423487461"/>
	</vehicle>
	<vehicle id="107" depart="132">
		<route edges="423487359#0"/>
	</vehicle>
	<vehicle id="108" depart="133">
		<route edges="808587435#0"/>
	</vehicle>
	<vehicle id="109" depart="133">
		<route edges="-755435065#2"/>
	</vehicle>
	<vehicle id="110" depart="134">
		<route edges="846857035#0"/>
	</vehicle>
	<vehicle id="111" depart="135">
		<route edges="104717225#0"/>
	</vehicle>
	<vehicle id="112" depart="136">
		<route edges="908435479#0"/>
	</vehicle>
	<vehicle id="113" depart="137">
		<route edges="442372081#0"/>
	</vehicle>
	<vehicle id="114" depart="140">
		<route edges="1182933856#0"/>
	</vehicle>
	<vehicle id="115" depart="143">
		<route edges="-968816562#41"/>
	</vehicle>
	<vehicle id="116" depart="144">
		<route edges="423487375#0-AddedOffRampEdge"/>
	</vehicle>
	<vehicle id="117" depart="149">
		<route edges="423487442#0"/>
	</vehicle>
	<vehicle id="118" depart="150">
		<route edges="423487307#0-AddedOffRampEdge"/>
	</vehicle>
	<vehicle id="119" depart="151">
		<route edges="597602686#29"/>
	</vehicle>
	<vehicle id="120" depart="152">
		<route edges="15389730#0"/>
	</vehicle>
	<vehicle id="121" depart="153">
		<route edges="442372090"/>
	</vehicle>
	<vehicle id="122" depart="153">
		<route edges="423487419#2"/>
	</vehicle>
	<vehicle id="123" depart="155">
		<route edges="981165358#0"/>
	</vehicle>
	<vehicle id="124" depart="159">
		<route edges="755435068"/>
	</vehicle>
	<vehicle id="125" depart="162">
		<route edges="423487450#3"/>
	</vehicle>
	<vehicle id="126" depart="163">
		<route edges="423487254"/>
	</vehicle>
	<vehicle id="127" depart="163">
		<route edges="442372081#11"/>
	</vehicle>
	<vehicle id="128" depart="165">
		<route edges="744870403#0"/>
	</vehicle>
	<vehicle id="129" depart="168">
		<route edges="423487444#0"/>
	</vehicle>
	<vehicle id="130" depart="171">
		<route edges="15438674#0"/>
	</vehicle>
	<vehicle id="131" depart="175">
		<route edges="423487419#2-AddedOffRampEdge"/>
	</vehicle>
	<vehicle id="132" depart="176">
		<route edges="15435154#0"/>
	</vehicle>
	<vehicle id="133" depart="176">
		<route edges="423487463"/>
	</vehicle>
	<vehicle id="134" depart="179">
		<route edges="290026885"/>
	</vehicle>
	<vehicle id="135" depart="181">
		<route edges="601725848"/>
	</vehicle>
	<vehicle id="136" depart="181">
		<route edges="1081590614#0"/>
	</vehicle>
	<vehicle id="137" depart="182">
		<route edges="423506027"/>
	</vehicle>
	<vehicle id="138" depart="183">
		<route edges="968816562#0"/>
	</vehicle>
	<vehicle id="139" depart="184">
		<route edges="15389730#0"/>
	</vehicle>
	<vehicle id="140" depart="188">
		<route edges="-15389730#20"/>
	</vehicle>
	<vehicle id="141" depart="188">
		<route edges="423487443#0-AddedOffRampEdge"/>
	</vehicle>
	<vehicle id="142" depart="189">
		<route edges="968816561#0"/>
	</vehicle>
	<vehicle id="143" depart="190">
		<route edges="994901460#0"/>
	</vehicle>
	<vehicle id="144" depart="193">
		<route edges="746893258#0"/>
	</vehicle>
	<vehicle id="145" depart="194">
		<route edges="846857039#0"/>
	</vehicle>
	<vehicle id="146" depart="195">
		<route edges="423487434#0"/>
	</vehicle>
	<vehicle id="147" depart="196">
		<route edges="-1128434406#2"/>
	</vehicle>
	<vehicle id="148" depart="196">
		<route edges="423487309"/>
	</vehicle>
	<vehicle id="149" depart="196">
		<route edges="15435154#0"/>
	</vehicle>
	<vehicle id="150" depart="201">
		<route edges="423487442#1"/>
	</vehicle>
	<vehicle id="151" depart="204">
		<route edges="423487419#2-AddedOffRampEdge"/>
	</vehicle>
	<vehicle id="152" depart="204">
		<route edges="987713877#0"/>
	</vehicle>
	<vehicle id="153" depart="205">
		<route edges="597602686#23"/>
	</vehicle>
	<vehicle id="154" depart="205">
		<route edges="957134129#0"/>
	</vehicle>
	<vehicle id="155" depart="206">
		<route edges="423487462"/>
	</vehicle>
	<vehicle id="156" depart="207">
		<route edges="-755435068"/>
	</vehicle>
	<vehicle id="157" depart="208">
		<route edges="423505999#0"/>
	</vehicle>
	<vehicle id="158" depart="208">
		<route edges="295292533"/>
	</vehicle>
	<vehicle id="159" depart="209">
		<route edges="201688966"/>
	</vehicle>
	<vehicle id="160" depart="209">
		<route edges="-746893258#1"/>
	</vehicle>
	<vehicle id="161" depart="210">
		<route edges="423487309"/>
	</vehicle>
	<vehicle id="162" depart="214">
		<route edges="15422879#0"/>
	</vehicle>
	<vehicle id="163" depart="217">
		<route edges="1013862586#7"/>
	</vehicle>
	<vehicle id="164" depart="219">
		<route edges="981165358#0"/>
	</vehicle>
	<vehicle id="165" depart="220">
		<route edges="423487448#1"/>
	</vehicle>
	<vehicle id="166" depart="221">
		<route edges="597528970#0"/>
	</vehicle>
	<vehicle id="167" depart="222">
		<route edges="423487443#0-AddedOffRampEdge"/>
	</vehicle>
	<vehicle id="168" depart="222">
		<route edges="-15458116"/>
	</vehicle>
	<vehicle id="169" depart="224">
		<route edges="423487450#1"/>
	</vehicle>
	<vehicle id="170" depart="224">
		<route edges="-15389730#32"/>
	</vehicle>
	<vehicle id="171" depart="224">
		<route edges="423487419#0"/>
	</vehicle>
	<vehicle id="172" depart="226">
		<route edges="597528970#0"/>
	</vehicle>
	<vehicle id="173" depart="229">
		<route edges="423487449#0"/>
	</vehicle>
	<vehicle id="174" depart="231">
		<route edges="423487299#0"/>
	</vehicle>
	<vehicle id="175" depart="231">
		<route edges="423487442#0"/>
	</vehicle>
	<vehicle id="176" depart="231">
		<route edges="808587431#0"/>
	</vehicle>
	<vehicle id="177" depart="233">
		<route edges="423487444#0-AddedOffRampEdge"/>
	</vehicle>
	<vehicle id="178" depart="234">
		<route edges="423505999#0"/>
	</vehicle>
	<vehicle id="179" depart="234">
		<route edges="423487447#2"/>
	</vehicle>
	<vehicle id="180" depart="235">
		<route edges="962896468#0"/>
	</vehicle>
	<vehicle id="181" depart="236">
		<route edges="423487354#0"/>
	</vehicle>
	<vehicle id="182" depart="237">
		<route edges="-683976549#1"/>
	</vehicle>
	<vehicle id="183" depart="237">
		<route edges="1042572824#0"/>
	</vehicle>
	<vehicle id="184" depart="237">
		<route edges="423487452#0"/>
	</vehicle>
	<vehicle id="185" depart="239">
		<route edges="962896467#4"/>
	</vehicle>
	<vehicle id="186" depart="239">
		<route edges="994901460#0"/>
	</vehicle>
	<vehicle id="187" depart="239">
		<route edges="988583021#0"/>
	</vehicle>
	<vehicle id="188" depart="242">
		<route edges="987713877#0"/>
	</vehicle>
	<vehicle id="189" depart="244">
		<route edges="-268118792#10"/>
	</vehicle>
	<vehicle id="190" depart="244">
		<route edges="442372093#1"/>
	</vehicle>
	<vehicle id="191" depart="244">
		<route edges="423487419#0"/>
	</vehicle>
	<vehicle id="192" depart="246">
		<route edges="423487346#0"/>
	</vehicle>
	<vehicle id="193" depart="247">
		<route edges="423487293#0"/>
	</vehicle>
	<vehicle id="194" depart="248">
		<route edges="954632729"/>
	</vehicle>
	<vehicle id="195" depart="248">
		<route edges="423487419#2-AddedOffRampEdge"/>
	</vehicle>
	<vehicle id="196" depart="252">
		<route edges="987713877#1"/>
	</vehicle>
	<vehicle id="197" depart="254">
		<route edges="442372081#11"/>
	</vehicle>
	<vehicle id="198" depart="254">
		<route edges="-1128434406#2"/>
	</vehicle>
	<vehicle id="199" depart="254">
		<route edges="954632729"/>
	</vehicle>
	<vehicle id="200" depart="255">
		<route edges="597602686#9"/>
	</vehicle>
	<vehicle id="201" depart="256">
		<route edges="987713877#0"/>
	</vehicle>
	<vehicle id="202" depart="257">
		<route edges="1013862586#7"/>
	</vehicle>
	<vehicle id="203" depart="259">
		<route edges="423487449#0-AddedOffRampEdge"/>
	</vehicle>
	<vehicle id="204" depart="259">
		<route edges="232089532"/>
	</vehicle>
	<vehicle id="205" depart="262">
		<route edges="601725848"/>
	</vehicle>
	<vehicle id="206" depart="263">
		<route edges="601725847#0"/>
	</vehicle>
	<vehicle id="207" depart="272">
		<route edges="423487307#3"/>
	</vehicle>
	<vehicle id="208" depart="274">
		<route edges="-232045940#5"/>
	</vehicle>
	<vehicle id="209" depart="275">
		<route edges="15422879#0"/>
	</vehicle>
	<vehicle id="210" depart="279">
		<route edges="1031308682"/>
	</vehicle>
	<vehicle id="211" depart="280">
		<route edges="423506029#0"/>
	</vehicle>
	<vehicle id="212" depart="280">
		<route edges="-808380062#13"/>
	</vehicle>
	<vehicle id="213" depart="282">
		<route edges="597528970#0"/>
	</vehicle>
	<vehicle id="214" depart="283">
		<route edges="978715537#0"/>
	</vehicle>
	<vehicle id="215" depart="283">
		<route edges="1128434406#0"/>
	</vehicle>
	<vehicle id="216" depart="284">
		<route edges="15389730#0"/>
	</vehicle>
	<vehicle id="217" depart="284">
		<route edges="597602686#29"/>
	</vehicle>
	<vehicle id="218" depart="285">
		<route edges="985219577"/>
	</vehicle>
	<vehicle id="219" depart="287">
		<route edges="954632489"/>
	</vehicle>
	<vehicle id="220" depart="289">
		<route edges="15415651#0"/>
	</vehicle>
	<vehicle id="221" depart="289">
		<route edges="15302679"/>
	</vehicle>
	<vehicle id="222" depart="290">
		<route edges="1117149005#0"/>
	</vehicle>
	<vehicle id="223" depart="290">
		<route edges="808587431#0"/>
	</vehicle>
	<vehicle id="224" depart="291">
		<route edges="954632490#0"/>
	</vehicle>
	<vehicle id="225" depart="293">
		<route edges="423487448#4"/>
	</vehicle>
	<vehicle id="226" depart="293">
		<route edges="1081590614#0"/>
	</vehicle>
	<vehicle id="227" depart="293">
		<route edges="962816052#1"/>
	</vehicle>
	<vehicle id="228" depart="294">
		<route edges="1117149005#0"/>
	</vehicle>
	<vehicle id="229" depart="295">
		<route edges="1026416107"/>
	</vehicle>
	<vehicle id="230" depart="296">
		<route edges="978715535#2"/>
	</vehicle>
	<vehicle id="231" depart="296">
		<route edges="1013862585#7"/>
	</vehicle>
	<vehicle id="232" depart="296">
		<route edges="683976549#0"/>
	</vehicle>
	<vehicle id="233" depart="298">
		<route edges="423487439#0"/>
	</vehicle>
	<vehicle id="234" depart="300">
		<route edges="597602686#13"/>
	</vehicle>
	<vehicle id="235" depart="301">
		<route edges="968816564#0"/>
	</vehicle>
	<vehicle id="236" depart="302">
		<route edges="597602687#0"/>
	</vehicle>
	<vehicle id="237" depart="303">
		<route edges="295292534#0"/>
	</vehicle>
	<vehicle id="238" depart="304">
		<route edges="423487307#3"/>
	</vehicle>
	<vehicle id="239" depart="304">
		<route edges="-268118792#23"/>
	</vehicle>
	<vehicle id="240" depart="305">
		<route edges="423487255#0"/>
	</vehicle>
	<vehicle id="241" depart="306">
		<route edges="994901463#0"/>
	</vehicle>
	<vehicle id="242" depart="310">
		<route edges="423487257#0"/>
	</vehicle>
	<vehicle id="243" depart="311">
		<route edges="846857035#0"/>
	</vehicle>
	<vehicle id="244" depart="312">
		<route edges="846813573#1"/>
	</vehicle>
	<vehicle id="245" depart="312">
		<route edges="-268118792#23"/>
	</vehicle>
	<vehicle id="246" depart="313">
		<route edges="423487438#0"/>
	</vehicle>
	<vehicle id="247" depart="313">
		<route edges="423487412#0"/>
	</vehicle>
	<vehicle id="248" depart="313">
		<route edges="808587437#0"/>
	</vehicle>
	<vehicle id="249" depart="314">
		<route edges="268118792#11"/>
	</vehicle>
	<vehicle id="250" depart="314">
		<route edges="1130568089#0"/>
	</vehicle>
	<vehicle id="251" depart="317">
		<route edges="15438674#0"/>
	</vehicle>
	<vehicle id="252" depart="318">
		<route edges="683976549#0"/>
	</vehicle>
	<vehicle id="253" depart="319">
		<route edges="310973089#0"/>
	</vehicle>
	<vehicle id="254" depart="327">
		<route edges="423487257#0"/>
	</vehicle>
	<vehicle id="255" depart="328">
		<route edges="808587436#0"/>
	</vehicle>
	<vehicle id="256" depart="330">
		<route edges="908435481#0"/>
	</vehicle>
	<vehicle id="257" depart="338">
		<route edges="597602686#0"/>
	</vehicle>
	<vehicle id="258" depart="342">
		<route edges="423506031#0"/>
	</vehicle>
	<vehicle id="259" depart="346">
		<route edges="295292535"/>
	</vehicle>
	<vehicle id="260" depart="346">
		<route edges="1042572824#0"/>
	</vehicle>
	<vehicle id="261" depart="353">
		<route edges="423487419#0"/>
	</vehicle>
	<vehicle id="262" depart="354">
		<route edges="15458116"/>
	</vehicle>
	<vehicle id="263" depart="356">
		<route edges="423487412#0"/>
	</vehicle>
	<vehicle id="264" depart="358">
		<route edges="968816562#0"/>
	</vehicle>
	<vehicle id="265" depart="363">
		<route edges="15428593#8"/>
	</vehicle>
	<vehicle id="266" depart="364">
		<route edges="597528970#2"/>
	</vehicle>
	<vehicle id="267" depart="365">
		<route edges="423487307#0-AddedOffRampEdge"/>
	</vehicle>
	<vehicle id="268" depart="365">
		<route edges="423487307#0-AddedOffRampEdge"/>
	</vehicle>
	<vehicle id="269" depart="366">
		<route edges="423487442#1"/>
	</vehicle>
	<vehicle id="270" depart="368">
		<route edges="597528970#0"/>
	</vehicle>
	<vehicle id="271" depart="369">
		<route edges="423487439#0"/>
	</vehicle>
	<vehicle id="272" depart="372">
		<route edges="-746893261#1"/>
	</vehicle>
	<vehicle id="273" depart="373">
		<route edges="808587435#0"/>
	</vehicle>
	<vehicle id="274" depart="373">
		<route edges="981165359#0"/>
	</vehicle>
	<vehicle id="275" depart="374">
		<route edges="988583021#0"/>
	</vehicle>
	<vehicle id="276" depart="374">
		<route edges="968816562#0"/>
	</vehicle>
	<vehicle id="277" depart="374">
		<route edges="442372081#5"/>
	</vehicle>
	<vehicle id="278" depart="375">
		<route edges="423487386#0"/>
	</vehicle>
	<vehicle id="279" depart="375">
		<route edges="423487438#0"/>
	</vehicle>
	<vehicle id="280" depart="375">
		<route edges="290026879"/>
	</vehicle>
	<vehicle id="281" depart="376">
		<route edges="15302679"/>
	</vehicle>
	<vehicle id="282" depart="377">
		<route edges="1026416107"/>
	</vehicle>
	<vehicle id="283" depart="377">
		<route edges="808587437#0"/>
	</vehicle>
	<vehicle id="284" depart="378">
		<route edges="1128434405#2"/>
	</vehicle>
	<vehicle id="285" depart="378">
		<route edges="423487436#0-AddedOffRampEdge"/>
	</vehicle>
	<vehicle id="286" depart="378">
		<route edges="-846855219#3"/>
	</vehicle>
	<vehicle id="287" depart="380">
		<route edges="442372081#0"/>
	</vehicle>
	<vehicle id="288" depart="381">
		<route edges="423487463"/>
	</vehicle>
	<vehicle id="289" depart="385">
		<route edges="846813573#1"/>
	</vehicle>
	<vehicle id="290" depart="386">
		<route edges="423487438#1"/>
	</vehicle>
	<vehicle id="291" depart="387">
		<route edges="423506027-AddedOffRampEdge"/>
	</vehicle>
	<vehicle id="292" depart="387">
		<route edges="597528970#0"/>
	</vehicle>
	<vehicle id="293" depart="388">
		<route edges="-808380062#13"/>
	</vehicle>
	<vehicle id="294" depart="390">
		<route edges="423487436#0"/>
	</vehicle>
	<vehicle id="295" depart="396">
		<route edges="981165358#0"/>
	</vehicle>
	<vehicle id="296" depart="397">
		<route edges="1031308683#0-AddedOnRampEdge"/>
	</vehicle>
	<vehicle id="297" depart="399">
		<route edges="908435481#0"/>
	</vehicle>
	<vehicle id="298" depart="399">
		<route edges="312824885#3"/>
	</vehicle>
	<vehicle id="299" depart="400">
		<route edges="908436860#0"/>
	</vehicle>
</routes>
