<?xml version="1.0" encoding="UTF-8"?>

<!-- generated on 2023-07-18 23:02:44 by Eclipse SUMO netedit Version 1.18.0
<configuration xmlns:xsi="http://www.w3.org/2001/XMLSchema-instance" xsi:noNamespaceSchemaLocation="http://sumo.dlr.de/xsd/neteditConfiguration.xsd">

    <input>
        <sumo-net-file value="C:\Users\seong\Documents\STR-Sumo-Summer-Research\configurations\official.net.xml"/>
    </input>

    <output>
        <output-file value="C:\Users\seong\Documents\STR-Sumo-Summer-Research\configurations\official.net.xml"/>
        <output.street-names value="true"/>
    </output>

    <processing>
        <geometry.min-radius.fix.railways value="false"/>
        <geometry.max-grade.fix value="false"/>
        <offset.disable-normalization value="true"/>
        <lefthand value="0"/>
    </processing>

    <junctions>
        <no-turnarounds value="true"/>
        <junctions.corner-detail value="5"/>
        <junctions.limit-turn-speed value="5.50"/>
        <rectangular-lane-cut value="0"/>
    </junctions>

    <pedestrian>
        <walkingareas value="0"/>
    </pedestrian>

</configuration>
-->

<net version="1.16" junctionCornerDetail="5" limitTurnSpeed="5.50" xmlns:xsi="http://www.w3.org/2001/XMLSchema-instance" xsi:noNamespaceSchemaLocation="http://sumo.dlr.de/xsd/net_file.xsd">

    <location netOffset="10630519.27,-3468404.93" convBoundary="345.62,668.53,3642.87,4719.92" origBoundary="-95.520732,29.726209,-95.448164,29.763054" projParameter="+proj=merc +a=6378137 +b=6378137 +lat_ts=0.0 +lon_0=0.0 +x_0=0.0 +y_0=0 +k=1.0 +units=m +nadgrids=@null +wktext +no_defs"/>

    <type id="highway.primary" priority="12" numLanes="2" speed="27.78" disallow="tram rail_urban rail rail_electric rail_fast ship" oneway="0"/>
    <type id="highway.primary_link" priority="7" numLanes="1" speed="22.22" disallow="tram rail_urban rail rail_electric rail_fast ship" oneway="0"/>
    <type id="highway.secondary" priority="11" numLanes="1" speed="27.78" disallow="tram rail_urban rail rail_electric rail_fast ship" oneway="0"/>
    <type id="highway.secondary_link" priority="6" numLanes="1" speed="22.22" disallow="tram rail_urban rail rail_electric rail_fast ship" oneway="0"/>
    <type id="highway.tertiary" priority="10" numLanes="1" speed="22.22" disallow="tram rail_urban rail rail_electric rail_fast ship" oneway="0"/>
    <type id="highway.tertiary_link" priority="5" numLanes="1" speed="22.22" disallow="tram rail_urban rail rail_electric rail_fast ship" oneway="0"/>

    <edge id=":10316651675_0" function="internal">
        <lane id=":10316651675_0_0" index="0" disallow="tram rail_urban rail rail_electric rail_fast ship" speed="27.78" length="8.54" shape="3201.58,1560.65 3202.04,1563.12 3203.12,1564.67 3204.20,1566.22 3204.66,1568.69"/>
        <lane id=":10316651675_0_1" index="1" disallow="tram rail_urban rail rail_electric rail_fast ship" speed="27.78" length="8.54" shape="3198.38,1560.60 3198.84,1563.07 3199.92,1564.63 3201.00,1566.18 3201.46,1568.65"/>
        <lane id=":10316651675_0_2" index="2" disallow="tram rail_urban rail rail_electric rail_fast ship" speed="27.78" length="8.54" shape="3198.38,1560.60 3198.26,1568.60"/>
    </edge>
    <edge id=":10316651675_3" function="internal">
        <lane id=":10316651675_3_0" index="0" disallow="tram rail_urban rail rail_electric rail_fast ship" speed="27.78" length="8.54" shape="3191.86,1568.51 3191.40,1566.04 3190.32,1564.49 3189.24,1562.94 3188.78,1560.47"/>
        <lane id=":10316651675_3_1" index="1" disallow="tram rail_urban rail rail_electric rail_fast ship" speed="27.78" length="8.54" shape="3195.06,1568.56 3194.60,1566.09 3193.52,1564.54 3192.44,1562.98 3191.98,1560.51"/>
        <lane id=":10316651675_3_2" index="2" disallow="tram rail_urban rail rail_electric rail_fast ship" speed="27.78" length="8.54" shape="3195.06,1568.56 3195.18,1560.56"/>
    </edge>
    <edge id=":1081590611-AddedOffRampNode_0" function="internal">
        <lane id=":1081590611-AddedOffRampNode_0_0" index="0" disallow="tram rail_urban rail rail_electric rail_fast ship" speed="22.22" length="8.27" shape="2331.62,1188.30 2329.58,1189.76 2328.62,1191.39 2327.66,1193.02 2325.61,1194.48"/>
        <lane id=":1081590611-AddedOffRampNode_0_1" index="1" disallow="tram rail_urban rail rail_electric rail_fast ship" speed="22.22" length="8.27" shape="2331.62,1188.30 2324.31,1191.55"/>
        <lane id=":1081590611-AddedOffRampNode_0_2" index="2" disallow="tram rail_urban rail rail_electric rail_fast ship" speed="22.22" length="8.27" shape="2330.33,1185.37 2323.02,1188.63"/>
    </edge>
    <edge id=":1207829481_0" function="internal">
        <lane id=":1207829481_0_0" index="0" disallow="tram rail_urban rail rail_electric rail_fast ship" speed="22.22" length="8.20" shape="2752.58,1156.41 2750.18,1156.65 2748.56,1157.19 2746.95,1157.72 2744.54,1157.94"/>
        <lane id=":1207829481_0_1" index="1" disallow="tram rail_urban rail rail_electric rail_fast ship" speed="22.22" length="8.20" shape="2752.59,1153.21 2750.20,1153.45 2748.59,1153.99 2746.99,1154.52 2744.59,1154.74"/>
        <lane id=":1207829481_0_2" index="2" disallow="tram rail_urban rail rail_electric rail_fast ship" speed="22.22" length="8.20" shape="2752.59,1153.21 2750.21,1152.95 2748.62,1152.39 2747.03,1151.82 2744.64,1151.54"/>
    </edge>
    <edge id=":151747370_0" function="internal">
        <lane id=":151747370_0_0" index="0" disallow="tram rail_urban rail rail_electric rail_fast ship" speed="22.22" length="9.59" shape="2212.65,1227.93 2209.55,1228.45 2207.44,1229.41 2205.37,1230.06 2202.40,1229.67"/>
        <lane id=":151747370_0_1" index="1" disallow="tram rail_urban rail rail_electric rail_fast ship" speed="22.22" length="9.59" shape="2212.59,1224.73 2209.79,1225.25 2207.89,1226.22 2206.03,1226.91 2203.34,1226.61"/>
        <lane id=":151747370_0_2" index="2" disallow="tram rail_urban rail rail_electric rail_fast ship" speed="22.22" length="9.59" shape="2212.59,1224.73 2210.09,1224.75 2208.37,1224.63 2206.68,1224.27 2204.27,1223.56"/>
    </edge>
    <edge id=":152108295_0" function="internal">
        <lane id=":152108295_0_0" index="0" disallow="tram rail_urban rail rail_electric rail_fast ship" speed="27.78" length="8.19" shape="2125.38,1131.95 2125.61,1134.36 2126.13,1135.98 2126.64,1137.60 2126.83,1140.01"/>
        <lane id=":152108295_0_1" index="1" disallow="tram rail_urban rail rail_electric rail_fast ship" speed="27.78" length="8.19" shape="2122.18,1131.92 2122.41,1134.31 2122.93,1135.92 2123.44,1137.53 2123.63,1139.92"/>
        <lane id=":152108295_0_2" index="2" disallow="tram rail_urban rail rail_electric rail_fast ship" speed="27.78" length="8.19" shape="2122.18,1131.92 2121.91,1134.30 2121.33,1135.88 2120.74,1137.46 2120.43,1139.83"/>
    </edge>
    <edge id=":152115103_0" function="internal">
        <lane id=":152115103_0_0" index="0" disallow="tram rail_urban rail rail_electric rail_fast ship" speed="22.22" length="6.14" shape="2761.39,1449.26 2760.68,1447.67 2760.15,1446.61 2759.54,1445.58 2758.58,1444.13"/>
        <lane id=":152115103_0_1" index="1" disallow="tram rail_urban rail rail_electric rail_fast ship" speed="22.22" length="6.14" shape="2764.32,1447.96 2763.54,1446.23 2762.96,1445.06 2762.29,1443.94 2761.24,1442.35"/>
    </edge>
    <edge id=":152115103_2" function="internal">
        <lane id=":152115103_2_0" index="0" disallow="tram rail_urban rail rail_electric rail_fast ship" speed="22.22" length="7.53" shape="2763.90,1440.57 2765.58,1442.20 2767.25,1442.84 2768.82,1443.55 2770.16,1445.36"/>
        <lane id=":152115103_2_1" index="1" disallow="tram rail_urban rail rail_electric rail_fast ship" speed="22.22" length="7.53" shape="2763.90,1440.57 2765.04,1442.30 2765.76,1443.51 2766.39,1444.78 2767.24,1446.66"/>
    </edge>
    <edge id=":152204299_0" function="internal">
        <lane id=":152204299_0_0" index="0" disallow="tram rail_urban rail rail_electric rail_fast ship" speed="6.61" length="9.24" shape="2783.42,1499.66 2783.78,1502.21 2784.84,1504.04 2786.59,1505.15 2789.04,1505.53"/>
    </edge>
    <edge id=":152204299_1" function="internal">
        <lane id=":152204299_1_0" index="0" disallow="tram rail_urban rail rail_electric rail_fast ship" speed="22.22" length="21.59" shape="2783.42,1499.66 2782.92,1506.49 2781.74,1512.16 2780.52,1516.88 2779.87,1520.90"/>
    </edge>
    <edge id=":152204299_2" function="internal">
        <lane id=":152204299_2_0" index="0" disallow="tram rail_urban rail rail_electric rail_fast ship" speed="3.65" length="1.44" shape="2780.22,1499.68 2779.42,1500.88"/>
    </edge>
    <edge id=":152204299_13" function="internal">
        <lane id=":152204299_13_0" index="0" disallow="tram rail_urban rail rail_electric rail_fast ship" speed="3.65" length="3.23" shape="2779.42,1500.88 2778.63,1501.29 2777.82,1500.89 2777.02,1499.69"/>
    </edge>
    <edge id=":152204299_3" function="internal">
        <lane id=":152204299_3_0" index="0" disallow="tram rail_urban rail rail_electric rail_fast ship" speed="7.25" length="11.69" shape="2765.04,1505.19 2768.90,1504.91 2771.64,1503.90 2773.28,1502.17 2773.82,1499.71"/>
    </edge>
    <edge id=":152204299_4" function="internal">
        <lane id=":152204299_4_0" index="0" disallow="tram rail_urban rail rail_electric rail_fast ship" speed="22.22" length="24.05" shape="2765.04,1505.19 2789.04,1505.53"/>
        <lane id=":152204299_4_1" index="1" disallow="tram rail_urban rail rail_electric rail_fast ship" speed="22.22" length="24.05" shape="2764.98,1508.39 2789.01,1508.73"/>
        <lane id=":152204299_4_2" index="2" disallow="tram rail_urban rail rail_electric rail_fast ship" speed="22.22" length="24.05" shape="2764.93,1511.59 2788.99,1511.93"/>
        <lane id=":152204299_4_3" index="3" disallow="tram rail_urban rail rail_electric rail_fast ship" speed="22.22" length="24.05" shape="2764.87,1514.79 2788.96,1515.13"/>
    </edge>
    <edge id=":152204299_8" function="internal">
        <lane id=":152204299_8_0" index="0" disallow="tram rail_urban rail rail_electric rail_fast ship" speed="8.78" length="17.60" shape="2764.87,1514.79 2771.52,1515.27 2776.23,1516.45 2779.02,1518.33 2779.87,1520.90"/>
    </edge>
    <edge id=":152204299_9" function="internal">
        <lane id=":152204299_9_0" index="0" disallow="tram rail_urban rail rail_electric rail_fast ship" speed="22.22" length="21.25" shape="2770.28,1520.52 2771.02,1514.23 2772.23,1509.91 2773.35,1505.70 2773.82,1499.71"/>
        <lane id=":152204299_9_1" index="1" disallow="tram rail_urban rail rail_electric rail_fast ship" speed="22.22" length="21.25" shape="2773.47,1520.65 2774.21,1514.30 2775.43,1509.94 2776.55,1505.69 2777.02,1499.69"/>
    </edge>
    <edge id=":152204299_11" function="internal">
        <lane id=":152204299_11_0" index="0" disallow="tram rail_urban rail rail_electric rail_fast ship" speed="8.26" length="14.83" shape="2776.67,1520.77 2777.53,1518.27 2779.86,1516.49 2783.67,1515.45 2788.96,1515.13"/>
    </edge>
    <edge id=":152204299_12" function="internal">
        <lane id=":152204299_12_0" index="0" disallow="tram rail_urban rail rail_electric rail_fast ship" speed="3.65" length="4.67" shape="2776.67,1520.77 2777.52,1519.61 2778.33,1519.24 2779.12,1519.67 2779.87,1520.90"/>
    </edge>
    <edge id=":152204320_0" function="internal">
        <lane id=":152204320_0_0" index="0" disallow="tram rail_urban rail rail_electric rail_fast ship" speed="8.00" length="11.57" shape="2715.97,1165.63 2714.47,1162.29 2712.66,1159.98 2710.52,1158.69 2708.06,1158.43"/>
        <lane id=":152204320_0_1" index="1" disallow="tram rail_urban rail rail_electric rail_fast ship" speed="9.27" length="15.86" shape="2719.00,1164.58 2716.98,1160.22 2714.43,1157.21 2711.36,1155.55 2707.76,1155.24"/>
    </edge>
    <edge id=":152204320_2" function="internal">
        <lane id=":152204320_2_0" index="0" disallow="tram rail_urban rail rail_electric rail_fast ship" speed="3.65" length="4.67" shape="2719.00,1164.58 2719.36,1163.19 2719.98,1162.54 2720.87,1162.66 2722.02,1163.53"/>
    </edge>
    <edge id=":152204320_3" function="internal">
        <lane id=":152204320_3_0" index="0" disallow="tram rail_urban rail rail_electric rail_fast ship" speed="5.88" length="9.11" shape="2726.24,1157.68 2723.62,1158.02 2722.04,1159.10 2721.51,1160.94 2722.02,1163.53"/>
    </edge>
    <edge id=":152204320_4" function="internal">
        <lane id=":152204320_4_0" index="0" disallow="tram rail_urban rail rail_electric rail_fast ship" speed="22.22" length="18.56" shape="2726.24,1157.68 2720.83,1157.63 2717.13,1157.69 2713.44,1157.93 2708.06,1158.43"/>
        <lane id=":152204320_4_1" index="1" disallow="tram rail_urban rail rail_electric rail_fast ship" speed="22.22" length="18.56" shape="2726.29,1154.48 2720.78,1154.43 2717.01,1154.49 2713.24,1154.74 2707.76,1155.24"/>
        <lane id=":152204320_4_2" index="2" disallow="tram rail_urban rail rail_electric rail_fast ship" speed="22.22" length="18.56" shape="2726.33,1151.28 2720.72,1151.23 2716.88,1151.29 2713.04,1151.54 2707.45,1152.06"/>
    </edge>
    <edge id=":152204320_7" function="internal">
        <lane id=":152204320_7_0" index="0" disallow="tram rail_urban rail rail_electric rail_fast ship" speed="22.22" length="19.94" shape="2713.37,1145.57 2722.02,1163.53"/>
    </edge>
    <edge id=":152204320_8" function="internal">
        <lane id=":152204320_8_0" index="0" disallow="tram rail_urban rail rail_electric rail_fast ship" speed="6.41" length="10.78" shape="2713.37,1145.57 2713.91,1148.11 2713.11,1150.04 2710.96,1151.35 2707.45,1152.06"/>
    </edge>
    <edge id=":152345361_0" function="internal">
        <lane id=":152345361_0_0" index="0" disallow="tram rail_urban rail rail_electric rail_fast ship" speed="22.22" length="8.08" shape="2384.18,1172.69 2381.91,1173.48 2380.47,1174.36 2379.03,1175.21 2376.74,1175.89"/>
        <lane id=":152345361_0_1" index="1" disallow="tram rail_urban rail rail_electric rail_fast ship" speed="22.22" length="8.08" shape="2383.46,1169.58 2381.23,1170.35 2379.82,1171.22 2378.40,1172.07 2376.15,1172.75"/>
    </edge>
    <edge id=":152392036_0" function="internal">
        <lane id=":152392036_0_0" index="0" disallow="tram rail_urban rail rail_electric rail_fast ship" speed="15.65" length="8.21" shape="2404.56,689.54 2402.16,689.76 2400.56,690.29 2398.95,690.82 2396.55,691.05"/>
        <lane id=":152392036_0_1" index="1" disallow="tram rail_urban rail rail_electric rail_fast ship" speed="15.65" length="8.21" shape="2404.60,686.34 2402.20,686.56 2400.59,687.09 2398.98,687.62 2396.58,687.85"/>
        <lane id=":152392036_0_2" index="2" disallow="tram rail_urban rail rail_electric rail_fast ship" speed="15.65" length="8.21" shape="2404.64,683.14 2402.23,683.36 2400.62,683.89 2399.01,684.42 2396.61,684.65"/>
    </edge>
    <edge id=":152463142_0" function="internal">
        <lane id=":152463142_0_0" index="0" disallow="tram rail_urban rail rail_electric rail_fast ship" speed="6.51" length="9.01" shape="3028.32,1501.94 3028.64,1504.39 3029.67,1506.15 3031.40,1507.23 3033.83,1507.62"/>
        <lane id=":152463142_0_1" index="1" disallow="tram rail_urban rail rail_electric rail_fast ship" speed="7.33" length="11.69" shape="3028.32,1501.94 3028.63,1505.79 3029.63,1508.55 3031.35,1510.23 3033.77,1510.82"/>
    </edge>
    <edge id=":152463142_2" function="internal">
        <lane id=":152463142_2_0" index="0" disallow="tram rail_urban rail rail_electric rail_fast ship" speed="3.65" length="4.67" shape="3028.32,1501.94 3027.51,1503.13 3026.71,1503.52 3025.91,1503.11 3025.13,1501.90"/>
    </edge>
    <edge id=":152463142_3" function="internal">
        <lane id=":152463142_3_0" index="0" disallow="tram rail_urban rail rail_electric rail_fast ship" speed="6.51" length="9.01" shape="3019.48,1507.43 3021.92,1507.10 3023.68,1506.07 3024.75,1504.34 3025.13,1501.90"/>
    </edge>
    <edge id=":152463142_4" function="internal">
        <lane id=":152463142_4_0" index="0" disallow="tram rail_urban rail rail_electric rail_fast ship" speed="22.22" length="14.30" shape="3019.48,1507.43 3033.83,1507.62"/>
        <lane id=":152463142_4_1" index="1" disallow="tram rail_urban rail rail_electric rail_fast ship" speed="22.22" length="14.30" shape="3019.45,1510.63 3033.77,1510.82"/>
        <lane id=":152463142_4_2" index="2" disallow="tram rail_urban rail rail_electric rail_fast ship" speed="22.22" length="14.30" shape="3019.43,1513.83 3033.71,1514.02"/>
        <lane id=":152463142_4_3" index="3" disallow="tram rail_urban rail rail_electric rail_fast ship" speed="22.22" length="14.30" shape="3019.40,1517.03 3033.65,1517.22"/>
    </edge>
    <edge id=":152463145_0" function="internal">
        <lane id=":152463145_0_0" index="0" disallow="tram rail_urban rail rail_electric rail_fast ship" speed="18.93" length="9.68" shape="2394.39,1500.21 2403.83,1502.15"/>
        <lane id=":152463145_0_1" index="1" disallow="tram rail_urban rail rail_electric rail_fast ship" speed="18.93" length="9.68" shape="2393.66,1503.32 2403.18,1505.29"/>
    </edge>
    <edge id=":152463145_2" function="internal">
        <lane id=":152463145_2_0" index="0" disallow="tram rail_urban rail rail_electric rail_fast ship" speed="15.65" length="11.58" shape="2392.93,1506.44 2396.30,1507.14 2398.62,1507.58 2400.89,1508.20 2404.08,1509.44"/>
        <lane id=":152463145_2_1" index="1" disallow="tram rail_urban rail rail_electric rail_fast ship" speed="15.65" length="11.02" shape="2392.20,1509.56 2395.41,1510.22 2397.62,1510.63 2399.78,1511.21 2402.82,1512.38"/>
        <lane id=":152463145_2_2" index="2" disallow="tram rail_urban rail rail_electric rail_fast ship" speed="15.65" length="10.46" shape="2391.47,1512.67 2394.52,1513.30 2396.62,1513.67 2398.68,1514.21 2401.56,1515.32"/>
    </edge>
    <edge id=":152553182_0" function="internal">
        <lane id=":152553182_0_0" index="0" disallow="tram rail_urban rail rail_electric rail_fast ship" speed="6.52" length="9.06" shape="3041.19,1163.54 3038.72,1163.86 3036.95,1164.89 3035.87,1166.63 3035.49,1169.07"/>
    </edge>
    <edge id=":152553182_1" function="internal">
        <lane id=":152553182_1_0" index="0" disallow="tram rail_urban rail rail_electric rail_fast ship" speed="22.22" length="20.92" shape="3041.23,1160.34 3020.26,1159.75"/>
        <lane id=":152553182_1_1" index="1" disallow="tram rail_urban rail rail_electric rail_fast ship" speed="22.22" length="20.92" shape="3041.26,1157.14 3020.40,1156.56"/>
    </edge>
    <edge id=":152553182_3" function="internal">
        <lane id=":152553182_3_0" index="0" disallow="tram rail_urban rail rail_electric rail_fast ship" speed="8.09" length="14.58" shape="3041.30,1153.94 3036.05,1153.53 3032.32,1152.43 3030.09,1150.65 3029.39,1148.17"/>
    </edge>
    <edge id=":152553182_4" function="internal">
        <lane id=":152553182_4_0" index="0" disallow="tram rail_urban rail rail_electric rail_fast ship" speed="22.22" length="20.81" shape="3035.78,1148.28 3035.49,1169.07"/>
        <lane id=":152553182_4_1" index="1" disallow="tram rail_urban rail rail_electric rail_fast ship" speed="22.22" length="20.81" shape="3032.58,1148.22 3032.29,1169.03"/>
    </edge>
    <edge id=":152553182_6" function="internal">
        <lane id=":152553182_6_0" index="0" disallow="tram rail_urban rail rail_electric rail_fast ship" speed="8.58" length="3.70" shape="3032.58,1148.22 3031.82,1151.85"/>
    </edge>
    <edge id=":152553182_7" function="internal">
        <lane id=":152553182_7_0" index="0" disallow="tram rail_urban rail rail_electric rail_fast ship" speed="3.65" length="1.44" shape="3032.58,1148.22 3031.76,1149.41"/>
    </edge>
    <edge id=":152553182_12" function="internal">
        <lane id=":152553182_12_0" index="0" disallow="tram rail_urban rail rail_electric rail_fast ship" speed="8.58" length="13.11" shape="3031.82,1151.85 3031.77,1152.07 3029.47,1154.75 3025.68,1156.24 3020.40,1156.56"/>
    </edge>
    <edge id=":152553182_13" function="internal">
        <lane id=":152553182_13_0" index="0" disallow="tram rail_urban rail rail_electric rail_fast ship" speed="3.65" length="3.23" shape="3031.76,1149.41 3030.96,1149.80 3030.17,1149.38 3029.39,1148.17"/>
    </edge>
    <edge id=":152553182_8" function="internal">
        <lane id=":152553182_8_0" index="0" disallow="tram rail_urban rail rail_electric rail_fast ship" speed="7.51" length="12.06" shape="3025.89,1168.96 3025.58,1165.03 3024.53,1162.19 3022.76,1160.43 3020.26,1159.75"/>
    </edge>
    <edge id=":152553182_9" function="internal">
        <lane id=":152553182_9_0" index="0" disallow="tram rail_urban rail rail_electric rail_fast ship" speed="22.22" length="20.84" shape="3025.89,1168.96 3026.19,1148.12"/>
        <lane id=":152553182_9_1" index="1" disallow="tram rail_urban rail rail_electric rail_fast ship" speed="22.22" length="20.84" shape="3029.09,1169.00 3029.39,1148.17"/>
    </edge>
    <edge id=":152553182_11" function="internal">
        <lane id=":152553182_11_0" index="0" disallow="tram rail_urban rail rail_electric rail_fast ship" speed="3.65" length="1.44" shape="3029.09,1169.00 3029.90,1167.81"/>
    </edge>
    <edge id=":152553182_14" function="internal">
        <lane id=":152553182_14_0" index="0" disallow="tram rail_urban rail rail_electric rail_fast ship" speed="3.65" length="3.23" shape="3029.90,1167.81 3030.71,1167.42 3031.50,1167.83 3032.29,1169.03"/>
    </edge>
    <edge id=":152553205_0" function="internal">
        <lane id=":152553205_0_0" index="0" disallow="tram rail_urban rail rail_electric rail_fast ship" speed="22.22" length="3.87" shape="2237.69,1230.36 2233.87,1230.92"/>
    </edge>
    <edge id=":152553205_1" function="internal">
        <lane id=":152553205_1_0" index="0" disallow="tram rail_urban rail rail_electric rail_fast ship" speed="22.22" length="3.80" shape="2237.11,1227.21 2236.00,1227.41 2235.23,1227.52 2234.46,1227.56 2233.34,1227.59"/>
        <lane id=":152553205_1_1" index="1" disallow="tram rail_urban rail rail_electric rail_fast ship" speed="22.22" length="3.26" shape="2236.52,1224.06 2235.57,1224.24 2234.91,1224.33 2234.25,1224.37 2233.28,1224.39"/>
    </edge>
    <edge id=":152562165_0" function="internal">
        <lane id=":152562165_0_0" index="0" disallow="tram rail_urban rail rail_electric rail_fast ship" speed="15.65" length="11.48" shape="2562.80,1596.07 2552.31,1591.89"/>
        <lane id=":152562165_0_1" index="1" disallow="tram rail_urban rail rail_electric rail_fast ship" speed="15.65" length="11.48" shape="2564.05,1593.12 2553.44,1588.90"/>
        <lane id=":152562165_0_2" index="2" disallow="tram rail_urban rail rail_electric rail_fast ship" speed="15.65" length="11.48" shape="2565.29,1590.17 2554.58,1585.91"/>
        <lane id=":152562165_0_3" index="3" disallow="tram rail_urban rail rail_electric rail_fast ship" speed="15.65" length="11.48" shape="2566.54,1587.23 2555.71,1582.91"/>
    </edge>
    <edge id=":152562165_4" function="internal">
        <lane id=":152562165_4_0" index="0" disallow="tram rail_urban rail rail_electric rail_fast ship" speed="5.18" length="10.60" shape="2559.86,1580.37 2561.02,1582.53 2559.98,1584.66 2557.56,1586.04 2554.58,1585.91"/>
        <lane id=":152562165_4_1" index="1" disallow="tram rail_urban rail rail_electric rail_fast ship" speed="6.10" length="15.50" shape="2559.86,1580.37 2563.67,1583.62 2564.25,1585.12 2561.60,1584.89 2555.71,1582.91"/>
    </edge>
    <edge id=":1813434767_0" function="internal">
        <lane id=":1813434767_0_0" index="0" disallow="tram rail_urban rail rail_electric rail_fast ship" speed="15.65" length="8.21" shape="2396.99,668.59 2399.39,668.37 2400.99,667.84 2402.59,667.30 2404.99,667.07"/>
        <lane id=":1813434767_0_1" index="1" disallow="tram rail_urban rail rail_electric rail_fast ship" speed="15.65" length="8.21" shape="2396.95,671.79 2399.35,671.57 2400.96,671.04 2402.57,670.50 2404.97,670.27"/>
        <lane id=":1813434767_0_2" index="2" disallow="tram rail_urban rail rail_electric rail_fast ship" speed="15.65" length="8.21" shape="2396.91,674.99 2399.32,674.77 2400.93,674.24 2402.54,673.70 2404.95,673.47"/>
    </edge>
    <edge id=":2935602744_0" function="internal">
        <lane id=":2935602744_0_0" index="0" disallow="tram rail_urban rail rail_electric rail_fast ship" speed="15.65" length="16.02" shape="2651.22,1633.42 2636.32,1627.13"/>
        <lane id=":2935602744_0_1" index="1" disallow="tram rail_urban rail rail_electric rail_fast ship" speed="15.65" length="16.02" shape="2652.37,1630.44 2637.56,1624.18"/>
        <lane id=":2935602744_0_2" index="2" disallow="tram rail_urban rail rail_electric rail_fast ship" speed="15.65" length="16.02" shape="2653.52,1627.45 2638.81,1621.23"/>
        <lane id=":2935602744_0_3" index="3" disallow="tram rail_urban rail rail_electric rail_fast ship" speed="15.65" length="16.02" shape="2654.67,1624.46 2640.06,1618.29"/>
    </edge>
    <edge id=":2935602744_4" function="internal">
        <lane id=":2935602744_4_0" index="0" disallow="tram rail_urban rail rail_electric rail_fast ship" speed="18.93" length="15.28" shape="2655.82,1621.48 2651.20,1619.81 2647.66,1618.56 2644.74,1617.20 2642.00,1615.20"/>
    </edge>
    <edge id=":2935602750_0" function="internal">
        <lane id=":2935602750_0_0" index="0" disallow="tram rail_urban rail rail_electric rail_fast ship" speed="15.65" length="11.32" shape="2626.32,1591.93 2636.89,1596.11"/>
        <lane id=":2935602750_0_1" index="1" disallow="tram rail_urban rail rail_electric rail_fast ship" speed="15.65" length="11.32" shape="2625.17,1594.91 2635.69,1599.08"/>
        <lane id=":2935602750_0_2" index="2" disallow="tram rail_urban rail rail_electric rail_fast ship" speed="15.65" length="11.32" shape="2624.01,1597.90 2634.50,1602.05"/>
    </edge>
    <edge id=":2935602750_3" function="internal">
        <lane id=":2935602750_3_0" index="0" disallow="tram rail_urban rail rail_electric rail_fast ship" speed="6.61" length="15.54" shape="2629.44,1605.42 2627.59,1600.80 2628.02,1598.21 2630.72,1597.63 2635.69,1599.08"/>
        <lane id=":2935602750_3_1" index="1" disallow="tram rail_urban rail rail_electric rail_fast ship" speed="5.52" length="10.34" shape="2629.44,1605.42 2628.39,1602.63 2628.88,1601.14 2630.92,1600.95 2634.50,1602.05"/>
    </edge>
    <edge id=":2935602751_0" function="internal">
        <lane id=":2935602751_0_0" index="0" disallow="tram rail_urban rail rail_electric rail_fast ship" speed="15.65" length="2.85" shape="2528.00,1552.96 2530.72,1554.06"/>
        <lane id=":2935602751_0_1" index="1" disallow="tram rail_urban rail rail_electric rail_fast ship" speed="15.65" length="2.85" shape="2526.85,1555.95 2529.49,1557.02"/>
        <lane id=":2935602751_0_2" index="2" disallow="tram rail_urban rail rail_electric rail_fast ship" speed="15.65" length="2.85" shape="2525.71,1558.94 2528.27,1559.97"/>
    </edge>
    <edge id=":2935602751_3" function="internal">
        <lane id=":2935602751_3_0" index="0" disallow="tram rail_urban rail rail_electric rail_fast ship" speed="18.93" length="3.88" shape="2524.57,1561.93 2528.11,1560.36"/>
    </edge>
    <edge id=":3187253462_0" function="internal">
        <lane id=":3187253462_0_0" index="0" disallow="tram rail_urban rail rail_electric rail_fast ship" speed="18.17" length="3.50" shape="2126.12,1243.95 2125.80,1244.94 2125.63,1245.63 2125.57,1246.34 2125.56,1247.38"/>
    </edge>
    <edge id=":3187253462_1" function="internal">
        <lane id=":3187253462_1_0" index="0" disallow="tram rail_urban rail rail_electric rail_fast ship" speed="27.78" length="3.52" shape="2122.36,1243.86 2122.36,1247.37"/>
        <lane id=":3187253462_1_1" index="1" disallow="tram rail_urban rail rail_electric rail_fast ship" speed="27.78" length="3.52" shape="2119.16,1243.85 2119.16,1247.37"/>
    </edge>
    <edge id=":3187264260_0" function="internal">
        <lane id=":3187264260_0_0" index="0" disallow="tram rail_urban rail rail_electric rail_fast ship" speed="4.25" length="6.90" shape="3213.36,824.68 3212.52,825.79 3211.08,825.37 3209.75,823.93 3209.21,821.96"/>
    </edge>
    <edge id=":3187264260_1" function="internal">
        <lane id=":3187264260_1_0" index="0" disallow="tram rail_urban rail rail_electric rail_fast ship" speed="27.78" length="11.50" shape="3205.62,833.35 3206.01,821.82"/>
        <lane id=":3187264260_1_1" index="1" disallow="tram rail_urban rail rail_electric rail_fast ship" speed="27.78" length="11.50" shape="3208.82,833.41 3209.21,821.96"/>
    </edge>
    <edge id=":3187265361_0" function="internal">
        <lane id=":3187265361_0_0" index="0" disallow="tram rail_urban rail rail_electric rail_fast ship" speed="27.78" length="8.16" shape="3223.46,804.68 3223.05,812.75"/>
        <lane id=":3187265361_0_1" index="1" disallow="tram rail_urban rail rail_electric rail_fast ship" speed="27.78" length="8.16" shape="3220.27,804.41 3219.85,812.63"/>
    </edge>
    <edge id=":3187265361_2" function="internal">
        <lane id=":3187265361_2_0" index="0" disallow="tram rail_urban rail rail_electric rail_fast ship" speed="8.53" length="7.19" shape="3220.27,804.41 3219.92,805.58 3219.06,806.87 3217.69,808.30 3215.81,809.85"/>
    </edge>
    <edge id=":3456429853_0" function="internal">
        <lane id=":3456429853_0_0" index="0" disallow="tram rail_urban rail rail_electric rail_fast ship" speed="22.22" length="8.81" shape="3033.32,1350.69 3032.79,1353.14 3031.67,1354.67 3030.55,1356.19 3030.02,1358.65"/>
    </edge>
    <edge id=":3456429853_1" function="internal">