<?xml version="1.0" ?>
<routes xmlns:xsi="&quot;http://www.w3.org/2001/XMLSchema-instance&quot;" xsi:noNamespaceSchemaLocation="&quot;http://sumo.dlr.de/xsd/routes_file.xsd&quot;">
	<vehicle id="0" depart="0">
		<route edges="442372081#0"/>
	</vehicle>
	<vehicle id="1" depart="0">
		<route edges="808587434"/>
	</vehicle>
	<vehicle id="2" depart="0">
		<route edges="985219577"/>
	</vehicle>
	<vehicle id="3" depart="0">
		<route edges="423487452#3"/>
	</vehicle>
	<vehicle id="4" depart="1">
		<route edges="962816052#1"/>
	</vehicle>
	<vehicle id="5" depart="2">
		<route edges="597602686#0"/>
	</vehicle>
	<vehicle id="6" depart="3">
		<route edges="-15435154#5"/>
	</vehicle>
	<vehicle id="7" depart="4">
		<route edges="15366554#0"/>
	</vehicle>
	<vehicle id="8" depart="5">
		<route edges="15389730#22"/>
	</vehicle>
	<vehicle id="9" depart="5">
		<route edges="746893258#0"/>
	</vehicle>
	<vehicle id="10" depart="5">
		<route edges="908435482#0"/>
	</vehicle>
	<vehicle id="11" depart="6">
		<route edges="232089532"/>
	</vehicle>
	<vehicle id="12" depart="6">
		<route edges="260359943#0"/>
	</vehicle>
	<vehicle id="13" depart="8">
		<route edges="1081590611"/>
	</vehicle>
	<vehicle id="14" depart="9">
		<route edges="423487449#0"/>
	</vehicle>
	<vehicle id="15" depart="9">
		<route edges="423487304#0"/>
	</vehicle>
	<vehicle id="16" depart="10">
		<route edges="962816052#1"/>
	</vehicle>
	<vehicle id="17" depart="10">
		<route edges="423487307#0-AddedOffRampEdge"/>
	</vehicle>
	<vehicle id="18" depart="10">
		<route edges="968816562#0"/>
	</vehicle>
	<vehicle id="19" depart="13">
		<route edges="987713877#1"/>
	</vehicle>
	<vehicle id="20" depart="13">
		<route edges="1031308683#0"/>
	</vehicle>
	<vehicle id="21" depart="13">
		<route edges="808587438#0"/>
	</vehicle>
	<vehicle id="22" depart="14">
		<route edges="954632489"/>
	</vehicle>
	<vehicle id="23" depart="15">
		<route edges="962896468#0"/>
	</vehicle>
	<vehicle id="24" depart="15">
		<route edges="846857036#3"/>
	</vehicle>
	<vehicle id="25" depart="15">
		<route edges="846857036#3"/>
	</vehicle>
	<vehicle id="26" depart="16">
		<route edges="423487416#0"/>
	</vehicle>
	<vehicle id="27" depart="17">
		<route edges="1031308683#0-AddedOnRampEdge"/>
	</vehicle>
	<vehicle id="28" depart="17">
		<route edges="-1128434406#2"/>
	</vehicle>
	<vehicle id="29" depart="17">
		<route edges="-1128434407#1"/>
	</vehicle>
	<vehicle id="30" depart="19">
		<route edges="1055874086#2"/>
	</vehicle>
	<vehicle id="31" depart="19">
		<route edges="423487375#0-AddedOffRampEdge"/>
	</vehicle>
	<vehicle id="32" depart="20">
		<route edges="846855219#0"/>
	</vehicle>
	<vehicle id="33" depart="22">
		<route edges="287525280#0"/>
	</vehicle>
	<vehicle id="34" depart="23">
		<route edges="908436863#0"/>
	</vehicle>
	<vehicle id="35" depart="23">
		<route edges="423505996#0"/>
	</vehicle>
	<vehicle id="36" depart="23">
		<route edges="478554548#3"/>
	</vehicle>
	<vehicle id="37" depart="24">
		<route edges="1081590611"/>
	</vehicle>
	<vehicle id="38" depart="25">
		<route edges="423487436#0"/>
	</vehicle>
	<vehicle id="39" depart="26">
		<route edges="290026885"/>
	</vehicle>
	<vehicle id="40" depart="26">
		<route edges="423487307#0"/>
	</vehicle>
	<vehicle id="41" depart="27">
		<route edges="597602686#9"/>
	</vehicle>
	<vehicle id="42" depart="27">
		<route edges="808587438#0"/>
	</vehicle>
	<vehicle id="43" depart="29">
		<route edges="808587438#0"/>
	</vehicle>
	<vehicle id="44" depart="29">
		<route edges="994901460#0"/>
	</vehicle>
	<vehicle id="45" depart="29">
		<route edges="423487419#2-AddedOffRampEdge"/>
	</vehicle>
	<vehicle id="46" depart="32">
		<route edges="962896467#0"/>
	</vehicle>
	<vehicle id="47" depart="33">
		<route edges="201688966"/>
	</vehicle>
	<vehicle id="48" depart="35">
		<route edges="15389730#22"/>
	</vehicle>
	<vehicle id="49" depart="39">
		<route edges="423506031#0-AddedOffRampEdge"/>
	</vehicle>
	<vehicle id="50" depart="41">
		<route edges="423487450#1"/>
	</vehicle>
	<vehicle id="51" depart="41">
		<route edges="-15428593#6"/>
	</vehicle>
	<vehicle id="52" depart="42">
		<route edges="968816564#0"/>
	</vehicle>
	<vehicle id="53" depart="43">
		<route edges="423506027"/>
	</vehicle>
	<vehicle id="54" depart="45">
		<route edges="846857036#0"/>
	</vehicle>
	<vehicle id="55" depart="45">
		<route edges="808587436#0"/>
	</vehicle>
	<vehicle id="56" depart="46">
		<route edges="601725845#10"/>
	</vehicle>
	<vehicle id="57" depart="47">
		<route edges="597602686#0"/>
	</vehicle>
	<vehicle id="58" depart="48">
		<route edges="423487447#2"/>
	</vehicle>
	<vehicle id="59" depart="52">
		<route edges="260359943#0"/>
	</vehicle>
	<vehicle id="60" depart="52">
		<route edges="-232045940#5"/>
	</vehicle>
	<vehicle id="61" depart="54">
		<route edges="968816564#0"/>
	</vehicle>
	<vehicle id="62" depart="55">
		<route edges="846857035#0"/>
	</vehicle>
	<vehicle id="63" depart="55">
		<route edges="994901462#0"/>
	</vehicle>
	<vehicle id="64" depart="56">
		<route edges="-755435065#2"/>
	</vehicle>
	<vehicle id="65" depart="57">
		<route edges="15366554#0"/>
	</vehicle>
	<vehicle id="66" depart="57">
		<route edges="423487450#1"/>
	</vehicle>
	<vehicle id="67" depart="57">
		<route edges="423487305#0"/>
	</vehicle>
	<vehicle id="68" depart="58">
		<route edges="478554548#1"/>
	</vehicle>
	<vehicle id="69" depart="58">
		<route edges="423487444#0-AddedOffRampEdge"/>
	</vehicle>
	<vehicle id="70" depart="60">
		<route edges="423487304#0"/>
	</vehicle>
	<vehicle id="71" depart="61">
		<route edges="423487444#0-AddedOffRampEdge"/>
	</vehicle>
	<vehicle id="72" depart="61">
		<route edges="104727118#0"/>
	</vehicle>
	<vehicle id="73" depart="62">
		<route edges="1013862586#0"/>
	</vehicle>
	<vehicle id="74" depart="63">
		<route edges="423487309"/>
	</vehicle>
	<vehicle id="75" depart="65">
		<route edges="423487386#0"/>
	</vehicle>
	<vehicle id="76" depart="66">
		<route edges="-601725845#19"/>
	</vehicle>
	<vehicle id="77" depart="68">
		<route edges="15366554#0"/>
	</vehicle>
	<vehicle id="78" depart="70">
		<route edges="423487450#1"/>
	</vehicle>
	<vehicle id="79" depart="72">
		<route edges="312824884#0"/>
	</vehicle>
	<vehicle id="80" depart="72">
		<route edges="597602686#9"/>
	</vehicle>
	<vehicle id="81" depart="73">
		<route edges="1128434403#0"/>
	</vehicle>
	<vehicle id="82" depart="73">
		<route edges="846813573#2"/>
	</vehicle>
	<vehicle id="83" depart="74">
		<route edges="423487449#0"/>
	</vehicle>
	<vehicle id="84" depart="74">
		<route edges="423487302#0"/>
	</vehicle>
	<vehicle id="85" depart="75">
		<route edges="423487412#0"/>
	</vehicle>
	<vehicle id="86" depart="78">
		<route edges="-968816562#41"/>
	</vehicle>
	<vehicle id="87" depart="78">
		<route edges="1081590609"/>
	</vehicle>
	<vehicle id="88" depart="79">
		<route edges="423487416#0-AddedOffRampEdge"/>
	</vehicle>
	<vehicle id="89" depart="81">
		<route edges="978715535#2"/>
	</vehicle>
	<vehicle id="90" depart="84">
		<route edges="423487304#0"/>
	</vehicle>
	<vehicle id="91" depart="89">
		<route edges="985219577"/>
	</vehicle>
	<vehicle id="92" depart="90">
		<route edges="423487439#0"/>
	</vehicle>
	<vehicle id="93" depart="90">
		<route edges="-15435154#5"/>
	</vehicle>
	<vehicle id="94" depart="91">
		<route edges="104727118#0"/>
	</vehicle>
	<vehicle id="95" depart="91">
		<route edges="442372081#11"/>
	</vehicle>
	<vehicle id="96" depart="93">
		<route edges="104717225#0"/>
	</vehicle>
	<vehicle id="97" depart="93">
		<route edges="423487448#0"/>
	</vehicle>
	<vehicle id="98" depart="94">
		<route edges="-15428593#6"/>
	</vehicle>
	<vehicle id="99" depart="95">
		<route edges="597602686#16"/>
	</vehicle>
	<vehicle id="100" depart="96">
		<route edges="423487302#0"/>
	</vehicle>
	<vehicle id="101" depart="97">
		<route edges="290026879"/>
	</vehicle>
	<vehicle id="102" depart="98">
		<route edges="808587435#0"/>
	</vehicle>
	<vehicle id="103" depart="100">
		<route edges="1072974806"/>
	</vehicle>
	<vehicle id="104" depart="100">
		<route edges="988583021#0"/>
	</vehicle>
	<vehicle id="105" depart="100">
		<route edges="601725847#0"/>
	</vehicle>
	<vehicle id="106" depart="102">
		<route edges="968816563#0"/>
	</vehicle>
	<vehicle id="107" depart="102">
		<route edges="-601725845#9"/>
	</vehicle>
	<vehicle id="108" depart="104">
		<route edges="423487421#0"/>
	</vehicle>
	<vehicle id="109" depart="106">
		<route edges="15389730#22"/>
	</vehicle>
	<vehicle id="110" depart="108">
		<route edges="954632488#0"/>
	</vehicle>
	<vehicle id="111" depart="108">
		<route edges="423487463"/>
	</vehicle>
	<vehicle id="112" depart="110">
		<route edges="968816562#0"/>
	</vehicle>
	<vehicle id="113" depart="110">
		<route edges="846817703"/>
	</vehicle>
	<vehicle id="114" depart="111">
		<route edges="987713878"/>
	</vehicle>
	<vehicle id="115" depart="113">
		<route edges="908436859#0"/>
	</vehicle>
	<vehicle id="116" depart="119">
		<route edges="423487448#0"/>
	</vehicle>
	<vehicle id="117" depart="120">
		<route edges="-268118792#13"/>
	</vehicle>
	<vehicle id="118" depart="120">
		<route edges="962816053#0"/>
	</vehicle>
	<vehicle id="119" depart="120">
		<route edges="808587433#0"/>
	</vehicle>
	<vehicle id="120" depart="121">
		<route edges="104717225#0"/>
	</vehicle>
	<vehicle id="121" depart="121">
		<route edges="423505999#0"/>
	</vehicle>
	<vehicle id="122" depart="123">
		<route edges="1013862585#7"/>
	</vehicle>
	<vehicle id="123" depart="123">
		<route edges="423487354#0"/>
	</vehicle>
	<vehicle id="124" depart="124">
		<route edges="-846855219#3"/>
	</vehicle>
	<vehicle id="125" depart="124">
		<route edges="846817703"/>
	</vehicle>
	<vehicle id="126" depart="125">
		<route edges="-1128434401"/>
	</vehicle>
	<vehicle id="127" depart="128">
		<route edges="-683889359#6"/>
	</vehicle>
	<vehicle id="128" depart="129">
		<route edges="1013862586#7"/>
	</vehicle>
	<vehicle id="129" depart="130">
		<route edges="597602687#0"/>
	</vehicle>
	<vehicle id="130" depart="130">
		<route edges="-746893259#2"/>
	</vehicle>
	<vehicle id="131" depart="134">
		<route edges="1013862585#7"/>
	</vehicle>
	<vehicle id="132" depart="134">
		<route edges="1128434407#0"/>
	</vehicle>
	<vehicle id="133" depart="135">
		<route edges="-15428593#6"/>
	</vehicle>
	<vehicle id="134" depart="135">
		<route edges="987713877#0"/>
	</vehicle>
	<vehicle id="135" depart="135">
		<route edges="1031308683#0"/>
	</vehicle>
	<vehicle id="136" depart="136">
		<route edges="1128434407#0"/>
	</vehicle>
	<vehicle id="137" depart="136">
		<route edges="423487438#1"/>
	</vehicle>
	<vehicle id="138" depart="136">
		<route edges="846813573#2"/>
	</vehicle>
	<vehicle id="139" depart="138">
		<route edges="423506027"/>
	</vehicle>
	<vehicle id="140" depart="139">
		<route edges="423487447#0"/>
	</vehicle>
	<vehicle id="141" depart="140">
		<route edges="-15458116"/>
	</vehicle>
	<vehicle id="142" depart="140">
		<route edges="908435482#0"/>
	</vehicle>
	<vehicle id="143" depart="141">
		<route edges="691318132#0"/>
	</vehicle>
	<vehicle id="144" depart="141">
		<route edges="597602686#16"/>
	</vehicle>
	<vehicle id="145" depart="148">
		<route edges="423487296"/>
	</vehicle>
	<vehicle id="146" depart="149">
		<route edges="755435065#0"/>
	</vehicle>
	<vehicle id="147" depart="149">
		<route edges="423487442#0"/>
	</vehicle>
	<vehicle id="148" depart="149">
		<route edges="-746893261#1"/>
	</vehicle>
	<vehicle id="149" depart="150">
		<route edges="423487416#0-AddedOffRampEdge"/>
	</vehicle>
	<vehicle id="150" depart="152">
		<route edges="15428593#0"/>
	</vehicle>
	<vehicle id="151" depart="152">
		<route edges="423487434#0"/>
	</vehicle>
	<vehicle id="152" depart="152">
		<route edges="962816053#0"/>
	</vehicle>
	<vehicle id="153" depart="153">
		<route edges="442372081#5"/>
	</vehicle>
	<vehicle id="154" depart="153">
		<route edges="-601725845#21"/>
	</vehicle>
	<vehicle id="155" depart="154">
		<route edges="908436862#0"/>
	</vehicle>
	<vehicle id="156" depart="154">
		<route edges="978715537#0"/>
	</vehicle>
	<vehicle id="157" depart="154">
		<route edges="-808380062#13"/>
	</vehicle>
	<vehicle id="158" depart="155">
		<route edges="691318132#0"/>
	</vehicle>
	<vehicle id="159" depart="155">
		<route edges="908436863#1"/>
	</vehicle>
	<vehicle id="160" depart="157">
		<route edges="1128434405#0"/>
	</vehicle>
	<vehicle id="161" depart="158">
		<route edges="994901460#0"/>
	</vehicle>
	<vehicle id="162" depart="158">
		<route edges="1031308683#0-AddedOnRampEdge"/>
	</vehicle>
	<vehicle id="163" depart="158">
		<route edges="423506035"/>
	</vehicle>
	<vehicle id="164" depart="158">
		<route edges="968816563#0"/>
	</vehicle>
	<vehicle id="165" depart="159">
		<route edges="423487419#0"/>
	</vehicle>
	<vehicle id="166" depart="159">
		<route edges="746893260"/>
	</vehicle>
	<vehicle id="167" depart="159">
		<route edges="423487432"/>
	</vehicle>
	<vehicle id="168" depart="160">
		<route edges="1013862586#7"/>
	</vehicle>
	<vehicle id="169" depart="161">
		<route edges="-755435067#3"/>
	</vehicle>
	<vehicle id="170" depart="161">
		<route edges="988583021#0"/>
	</vehicle>
	<vehicle id="171" depart="162">
		<route edges="1055874086#0"/>
	</vehicle>
	<vehicle id="172" depart="164">
		<route edges="601725845#21"/>
	</vehicle>
	<vehicle id="173" depart="164">
		<route edges="423487450#1"/>
	</vehicle>
	<vehicle id="174" depart="167">
		<route edges="1081590613#0"/>
	</vehicle>
	<vehicle id="175" depart="167">
		<route edges="994901463#0"/>
	</vehicle>
	<vehicle id="176" depart="167">
		<route edges="987713878"/>
	</vehicle>
	<vehicle id="177" depart="169">
		<route edges="954632489"/>
	</vehicle>
	<vehicle id="178" depart="170">
		<route edges="423487293#0"/>
	</vehicle>
	<vehicle id="179" depart="172">
		<route edges="423487419#2-AddedOffRampEdge"/>
	</vehicle>
	<vehicle id="180" depart="173">
		<route edges="908436859#0"/>
	</vehicle>
	<vehicle id="181" depart="173">
		<route edges="423487307#0"/>
	</vehicle>
	<vehicle id="182" depart="175">
		<route edges="423487293#0"/>
	</vehicle>
	<vehicle id="183" depart="176">
		<route edges="423487438#1"/>
	</vehicle>
	<vehicle id="184" depart="176">
		<route edges="846813573#1"/>
	</vehicle>
	<vehicle id="185" depart="176">
		<route edges="1072974806"/>
	</vehicle>
	<vehicle id="186" depart="178">
		<route edges="423487436#0-AddedOffRampEdge"/>
	</vehicle>
	<vehicle id="187" depart="178">
		<route edges="968816562#28"/>
	</vehicle>
	<vehicle id="188" depart="178">
		<route edges="-968816562#41"/>
	</vehicle>
	<vehicle id="189" depart="178">
		<route edges="962896467#3"/>
	</vehicle>
	<vehicle id="190" depart="179">
		<route edges="15399829#0"/>
	</vehicle>
	<vehicle id="191" depart="179">
		<route edges="423487419#2"/>
	</vehicle>
	<vehicle id="192" depart="180">
		<route edges="423487419#2"/>
	</vehicle>
	<vehicle id="193" depart="180">
		<route edges="423487444#0-AddedOffRampEdge"/>
	</vehicle>
	<vehicle id="194" depart="180">
		<route edges="201688966"/>
	</vehicle>
	<vehicle id="195" depart="180">
		<route edges="683889359#8"/>
	</vehicle>
	<vehicle id="196" depart="181">
		<route edges="968816563#0"/>
	</vehicle>
	<vehicle id="197" depart="182">
		<route edges="962816051"/>
	</vehicle>
	<vehicle id="198" depart="182">
		<route edges="1128434401"/>
	</vehicle>
	<vehicle id="199" depart="183">
		<route edges="601725845#0"/>
	</vehicle>
	<vehicle id="200" depart="185">
		<route edges="423487419#2-AddedOffRampEdge"/>
	</vehicle>
	<vehicle id="201" depart="186">
		<route edges="597602687#0"/>
	</vehicle>
	<vehicle id="202" depart="186">
		<route edges="-268118792#10"/>
	</vehicle>
	<vehicle id="203" depart="187">
		<route edges="423487442#1"/>
	</vehicle>
	<vehicle id="204" depart="189">
		<route edges="423487429#0"/>
	</vehicle>
	<vehicle id="205" depart="191">
		<route edges="290026884"/>
	</vehicle>
	<vehicle id="206" depart="194">
		<route edges="15435154#0"/>
	</vehicle>
	<vehicle id="207" depart="196">
		<route edges="268118792#0"/>
	</vehicle>
	<vehicle id="208" depart="197">
		<route edges="994901460#0"/>
	</vehicle>
	<vehicle id="209" depart="198">
		<route edges="423487442#1"/>
	</vehicle>
	<vehicle id="210" depart="198">
		<route edges="423487448#4"/>
	</vehicle>
	<vehicle id="211" depart="202">
		<route edges="597528981#0"/>
	</vehicle>
	<vehicle id="212" depart="202">
		<route edges="15399829#0"/>
	</vehicle>
	<vehicle id="213" depart="202">
		<route edges="994901462#0"/>
	</vehicle>
	<vehicle id="214" depart="203">
		<route edges="423487451#0"/>
	</vehicle>
	<vehicle id="215" depart="204">
		<route edges="-755435065#2"/>
	</vehicle>
	<vehicle id="216" depart="205">
		<route edges="423487419#0"/>
	</vehicle>
	<vehicle id="217" depart="206">
		<route edges="846857035#0"/>
	</vehicle>
	<vehicle id="218" depart="206">
		<route edges="-1128434406#2"/>
	</vehicle>
	<vehicle id="219" depart="206">
		<route edges="312824885#3"/>
	</vehicle>
	<vehicle id="220" depart="206">
		<route edges="423487450#3"/>
	</vehicle>
	<vehicle id="221" depart="207">
		<route edges="683976549#0"/>
	</vehicle>
	<vehicle id="222" depart="212">
		<route edges="-683889359#6"/>
	</vehicle>
	<vehicle id="223" depart="213">
		<route edges="423487448#4"/>
	</vehicle>
	<vehicle id="224" depart="213">
		<route edges="808587434"/>
	</vehicle>
	<vehicle id="225" depart="214">
		<route edges="423487438#0"/>
	</vehicle>
	<vehicle id="226" depart="218">
		<route edges="423487443#0"/>
	</vehicle>
	<vehicle id="227" depart="222">
		<route edges="295292533"/>
	</vehicle>
	<vehicle id="228" depart="222">
		<route edges="1130568089#0"/>
	</vehicle>
	<vehicle id="229" depart="227">
		<route edges="1117149005#0"/>
	</vehicle>
	<vehicle id="230" depart="229">
		<route edges="978715537#0"/>
	</vehicle>
	<vehicle id="231" depart="231">
		<route edges="423487354#0"/>
	</vehicle>
	<vehicle id="232" depart="232">
		<route edges="908435482#0"/>
	</vehicle>
	<vehicle id="233" depart="232">
		<route edges="478554548#3"/>
	</vehicle>
	<vehicle id="234" depart="233">
		<route edges="724861791"/>
	</vehicle>
	<vehicle id="235" depart="235">
		<route edges="423506031#0"/>
	</vehicle>
	<vehicle id="236" depart="235">
		<route edges="442372090-AddedOffRampEdge"/>
	</vehicle>
	<vehicle id="237" depart="235">
		<route edges="423487259#0"/>
	</vehicle>
	<vehicle id="238" depart="237">
		<route edges="962896467#4"/>
	</vehicle>
	<vehicle id="239" depart="237">
		<route edges="968816562#28"/>
	</vehicle>
	<vehicle id="240" depart="238">
		<route edges="987713877#1"/>
	</vehicle>
	<vehicle id="241" depart="239">
		<route edges="-968816562#27"/>
	</vehicle>
	<vehicle id="242" depart="241">
		<route edges="601725845#21"/>
	</vehicle>
	<vehicle id="243" depart="241">
		<route edges="962896468#0"/>
	</vehicle>
	<vehicle id="244" depart="241">
		<route edges="423487255#0"/>
	</vehicle>
	<vehicle id="245" depart="242">
		<route edges="423487304#0"/>
	</vehicle>
	<vehicle id="246" depart="243">
		<route edges="962816052#0"/>
	</vehicle>
	<vehicle id="247" depart="245">
		<route edges="981165358#0"/>
	</vehicle>
	<vehicle id="248" depart="245">
		<route edges="808587438#0"/>
	</vehicle>
	<vehicle id="249" depart="247">
		<route edges="15302679"/>
	</vehicle>
	<vehicle id="250" depart="248">
		<route edges="1031308683#0"/>
	</vehicle>
	<vehicle id="251" depart="249">
		<route edges="423506027-AddedOffRampEdge"/>
	</vehicle>
	<vehicle id="252" depart="250">
		<route edges="423487307#0"/>
	</vehicle>
	<vehicle id="253" depart="251">
		<route edges="846813575#0"/>
	</vehicle>
	<vehicle id="254" depart="251">
		<route edges="683889359#8"/>
	</vehicle>
	<vehicle id="255" depart="251">
		<route edges="423487429#0"/>
	</vehicle>
	<vehicle id="256" depart="256">
		<route edges="1081590615"/>
	</vehicle>
	<vehicle id="257" depart="256">
		<route edges="908435479#0"/>
	</vehicle>
	<vehicle id="258" depart="256">
		<route edges="-1128434401"/>
	</vehicle>
	<vehicle id="259" depart="257">
		<route edges="988583021#3"/>
	</vehicle>
	<vehicle id="260" depart="258">
		<route edges="846855219#0"/>
	</vehicle>
	<vehicle id="261" depart="258">
		<route edges="908436863#1"/>
	</vehicle>
	<vehicle id="262" depart="258">
		<route edges="1072974806"/>
	</vehicle>
	<vehicle id="263" depart="258">
		<route edges="423487461"/>
	</vehicle>
	<vehicle id="264" depart="258">
		<route edges="597602686#13"/>
	</vehicle>
	<vehicle id="265" depart="259">
		<route edges="597528981#0"/>
	</vehicle>
	<vehicle id="266" depart="260">
		<route edges="15422879#0"/>
	</vehicle>
	<vehicle id="267" depart="261">
		<route edges="962896467#3"/>
	</vehicle>
	<vehicle id="268" depart="261">
		<route edges="104727143#0"/>
	</vehicle>
	<vehicle id="269" depart="261">
		<route edges="1117149005#0"/>
	</vehicle>
	<vehicle id="270" depart="262">
		<route edges="846855219#0"/>
	</vehicle>
	<vehicle id="271" depart="262">
		<route edges="1130568089#0"/>
	</vehicle>
	<vehicle id="272" depart="262">
		<route edges="423487436#0"/>
	</vehicle>
	<vehicle id="273" depart="262">
		<route edges="423487444#0-AddedOffRampEdge"/>
	</vehicle>
	<vehicle id="274" depart="265">
		<route edges="15438674#0"/>
	</vehicle>
	<vehicle id="275" depart="265">
		<route edges="312824884#0"/>
	</vehicle>
	<vehicle id="276" depart="267">
		<route edges="-1128434401"/>
	</vehicle>
	<vehicle id="277" depart="268">
		<route edges="423487438#1"/>
	</vehicle>
	<vehicle id="278" depart="269">
		<route edges="-15438674#3"/>
	</vehicle>
	<vehicle id="279" depart="269">
		<route edges="-15440930#4"/>
	</vehicle>
	<vehicle id="280" depart="270">
		<route edges="-808380062#13"/>
	</vehicle>
	<vehicle id="281" depart="270">
		<route edges="1055874086#2"/>
	</vehicle>
	<vehicle id="282" depart="270">
		<route edges="683889359#8"/>
	</vehicle>
	<vehicle id="283" depart="276">
		<route edges="968816562#0"/>
	</vehicle>
	<vehicle id="284" depart="276">
		<route edges="423487421#0"/>
	</vehicle>
	<vehicle id="285" depart="277">
		<route edges="597528979#0"/>
	</vehicle>
	<vehicle id="286" depart="277">
		<route edges="1013862586#0"/>
	</vehicle>
	<vehicle id="287" depart="279">
		<route edges="423487416#0-AddedOffRampEdge"/>
	</vehicle>
	<vehicle id="288" depart="279">
		<route edges="-15428593#6"/>
	</vehicle>
	<vehicle id="289" depart="280">
		<route edges="744870403#0"/>
	</vehicle>
	<vehicle id="290" depart="280">
		<route edges="15366554#9"/>
	</vehicle>
	<vehicle id="291" depart="282">
		<route edges="15366554#9"/>
	</vehicle>
	<vehicle id="292" depart="283">
		<route edges="423487438#0"/>
	</vehicle>
	<vehicle id="293" depart="283">
		<route edges="1081590614#0"/>
	</vehicle>
	<vehicle id="294" depart="285">
		<route edges="-683976549#1"/>
	</vehicle>
	<vehicle id="295" depart="285">
		<route edges="1130568089#0"/>
	</vehicle>
	<vehicle id="296" depart="285">
		<route edges="808587432#0"/>
	</vehicle>
	<vehicle id="297" depart="286">
		<route edges="423487443#0"/>
	</vehicle>
	<vehicle id="298" depart="286">
		<route edges="442372090-AddedOffRampEdge"/>
	</vehicle>
	<vehicle id="299" depart="288">
		<route edges="423487463"/>
	</vehicle>
	<vehicle id="300" depart="288">
		<route edges="423487434#0"/>
	</vehicle>
	<vehicle id="301" depart="288">
		<route edges="423487354#0"/>
	</vehicle>
	<vehicle id="302" depart="292">
		<route edges="423487293#0"/>
	</vehicle>
	<vehicle id="303" depart="292">
		<route edges="423487438#0"/>
	</vehicle>
	<vehicle id="304" depart="292">
		<route edges="15366554#9"/>
	</vehicle>
	<vehicle id="305" depart="292">
		<route edges="423487438#0"/>
	</vehicle>
	<vehicle id="306" depart="292">
		<route edges="423487432"/>
	</vehicle>
	<vehicle id="307" depart="293">
		<route edges="478554548#1"/>
	</vehicle>
	<vehicle id="308" depart="293">
		<route edges="994901463#0"/>
	</vehicle>
	<vehicle id="309" depart="294">
		<route edges="1128434405#0"/>
	</vehicle>
	<vehicle id="310" depart="294">
		<route edges="423487354#0"/>
	</vehicle>
	<vehicle id="311" depart="295">
		<route edges="423506031#0"/>
	</vehicle>
	<vehicle id="312" depart="296">
		<route edges="15428593#8"/>
	</vehicle>
	<vehicle id="313" depart="296">
		<route edges="691318132#0"/>
	</vehicle>
	<vehicle id="314" depart="301">
		<route edges="755435067#0"/>
	</vehicle>
	<vehicle id="315" depart="303">
		<route edges="423487436#0"/>
	</vehicle>
	<vehicle id="316" depart="305">
		<route edges="287525280#15"/>
	</vehicle>
	<vehicle id="317" depart="305">
		<route edges="846857035#0"/>
	</vehicle>
	<vehicle id="318" depart="306">
		<route edges="423487462"/>
	</vehicle>
	<vehicle id="319" depart="306">
		<route edges="908435482#0"/>
	</vehicle>
	<vehicle id="320" depart="307">
		<route edges="987713878"/>
	</vehicle>
	<vehicle id="321" depart="307">
		<route edges="683889359#8"/>
	</vehicle>
	<vehicle id="322" depart="307">
		<route edges="423487452#0"/>
	</vehicle>
	<vehicle id="323" depart="307">
		<route edges="423487346#0"/>
	</vehicle>
	<vehicle id="324" depart="310">
		<route edges="962896467#0"/>
	</vehicle>
	<vehicle id="325" depart="310">
		<route edges="423487438#0"/>
	</vehicle>
	<vehicle id="326" depart="314">
		<route edges="423487448#1"/>
	</vehicle>
	<vehicle id="327" depart="314">
		<route edges="290026879"/>
	</vehicle>
	<vehicle id="328" depart="315">
		<route edges="968816561#0"/>
	</vehicle>
	<vehicle id="329" depart="315">
		<route edges="-15422879#3"/>
	</vehicle>
	<vehicle id="330" depart="316">
		<route edges="15422879#0"/>
	</vehicle>
	<vehicle id="331" depart="316">
		<route edges="968816564#0"/>
	</vehicle>
	<vehicle id="332" depart="319">
		<route edges="423487448#0"/>
	</vehicle>
	<vehicle id="333" depart="319">
		<route edges="908435480#0"/>
	</vehicle>
	<vehicle id="334" depart="321">
		<route edges="1081590615"/>
	</vehicle>
	<vehicle id="335" depart="321">
		<route edges="442372090"/>
	</vehicle>
	<vehicle id="336" depart="322">
		<route edges="423487254"/>
	</vehicle>
	<vehicle id="337" depart="324">
		<route edges="994901462#0"/>
	</vehicle>
	<vehicle id="338" depart="325">
		<route edges="442372093#0"/>
	</vehicle>
	<vehicle id="339" depart="325">
		<route edges="962816053#0"/>
	</vehicle>
	<vehicle id="340" depart="330">
		<route edges="423487419#2-AddedOffRampEdge"/>
	</vehicle>
	<vehicle id="341" depart="330">
		<route edges="295292535"/>
	</vehicle>
	<vehicle id="342" depart="333">
		<route edges="-1128434407#1"/>
	</vehicle>
	<vehicle id="343" depart="333">
		<route edges="968816561#0"/>
	</vehicle>
	<vehicle id="344" depart="333">
		<route edges="423487450#0"/>
	</vehicle>
	<vehicle id="345" depart="336">
		<route edges="15366554#0"/>
	</vehicle>
	<vehicle id="346" depart="336">
		<route edges="746893260"/>
	</vehicle>
	<vehicle id="347" depart="338">
		<route edges="908435480#0"/>
	</vehicle>
	<vehicle id="348" depart="340">
		<route edges="988583021#3"/>
	</vehicle>
	<vehicle id="349" depart="340">
		<route edges="-1128434407#1"/>
	</vehicle>
	<vehicle id="350" depart="340">
		<route edges="423487432"/>
	</vehicle>
	<vehicle id="351" depart="341">
		<route edges="-683889359#6"/>
	</vehicle>
	<vehicle id="352" depart="341">
		<route edges="442372081#11"/>
	</vehicle>
	<vehicle id="353" depart="341">
		<route edges="601725847#0"/>
	</vehicle>
	<vehicle id="354" depart="342">
		<route edges="478554548#1"/>
	</vehicle>
	<vehicle id="355" depart="344">
		<route edges="478554548#3"/>
	</vehicle>
	<vehicle id="356" depart="344">
		<route edges="15428593#0"/>
	</vehicle>
	<vehicle id="357" depart="344">
		<route edges="423487419#2-AddedOffRampEdge"/>
	</vehicle>
	<vehicle id="358" depart="346">
		<route edges="15435154#0"/>
	</vehicle>
	<vehicle id="359" depart="348">
		<route edges="423487448#4"/>
	</vehicle>
	<vehicle id="360" depart="348">
		<route edges="-15389730#20"/>
	</vehicle>
	<vehicle id="361" depart="349">
		<route edges="260359943#0"/>
	</vehicle>
	<vehicle id="362" depart="349">
		<route edges="-268118792#23"/>
	</vehicle>
	<vehicle id="363" depart="349">
		<route edges="-968816562#41"/>
	</vehicle>
	<vehicle id="364" depart="350">
		<route edges="994901463#0"/>
	</vehicle>
	<vehicle id="365" depart="350">
		<route edges="423487449#0"/>
	</vehicle>
	<vehicle id="366" depart="352">
		<route edges="260359943#0"/>
	</vehicle>
	<vehicle id="367" depart="352">
		<route edges="-232045940#5"/>
	</vehicle>
	<vehicle id="368" depart="352">
		<route edges="755435065#0"/>
	</vehicle>
	<vehicle id="369" depart="353">
		<route edges="968816562#0"/>
	</vehicle>
	<vehicle id="370" depart="353">
		<route edges="968816564#0"/>
	</vehicle>
	<vehicle id="371" depart="354">
		<route edges="597602686#16"/>
	</vehicle>
	<vehicle id="372" depart="357">
		<route edges="1128434407#0"/>
	</vehicle>
	<vehicle id="373" depart="358">
		<route edges="-268118792#13"/>
	</vehicle>
	<vehicle id="374" depart="361">
		<route edges="808587433#0"/>
	</vehicle>
	<vehicle id="375" depart="362">
		<route edges="478554548#0"/>
	</vehicle>
	<vehicle id="376" depart="362">
		<route edges="15438674#0"/>
	</vehicle>
	<vehicle id="377" depart="362">
		<route edges="423505996#0"/>
	</vehicle>
	<vehicle id="378" depart="363">
		<route edges="-968816562#41"/>
	</vehicle>
	<vehicle id="379" depart="364">
		<route edges="1128434401"/>
	</vehicle>
	<vehicle id="380" depart="365">
		<route edges="15302679"/>
	</vehicle>
	<vehicle id="381" depart="366">
		<route edges="15438674#0"/>
	</vehicle>
	<vehicle id="382" depart="367">
		<route edges="232089532"/>
	</vehicle>
	<vehicle id="383" depart="368">
		<route edges="962816052#1"/>
	</vehicle>
	<vehicle id="384" depart="372">
		<route edges="423487255#0"/>
	</vehicle>
	<vehicle id="385" depart="373">
		<route edges="442372081#11"/>
	</vehicle>
	<vehicle id="386" depart="373">
		<route edges="312824885#0"/>
	</vehicle>
	<vehicle id="387" depart="373">
		<route edges="423487346#0"/>
	</vehicle>
	<vehicle id="388" depart="375">
		<route edges="987713877#1"/>
	</vehicle>
	<vehicle id="389" depart="376">
		<route edges="-556603473#2"/>
	</vehicle>
	<vehicle id="390" depart="378">
		<route edges="1081590611-AddedOffRampEdge"/>