<?xml version="1.0" encoding="UTF-8"?>

<!-- generated on 2023-07-18 23:13:05 by Eclipse SUMO netedit Version 1.18.0
<configuration xmlns:xsi="http://www.w3.org/2001/XMLSchema-instance" xsi:noNamespaceSchemaLocation="http://sumo.dlr.de/xsd/neteditConfiguration.xsd">

    <input>
        <sumo-net-file value="C:\Users\seong\Documents\STR-Sumo-Summer-Research\configurations\osm.net.xml"/>
    </input>

    <output>
        <output-file value="C:\Users\seong\Documents\STR-Sumo-Summer-Research\configurations\osm.net.xml"/>
        <output.street-names value="true"/>
    </output>

    <processing>
        <geometry.min-radius.fix.railways value="false"/>
        <geometry.max-grade.fix value="false"/>
        <offset.disable-normalization value="true"/>
        <lefthand value="0"/>
    </processing>

    <junctions>
        <no-turnarounds value="true"/>
        <junctions.corner-detail value="5"/>
        <junctions.limit-turn-speed value="5.50"/>
        <rectangular-lane-cut value="0"/>
    </junctions>

    <pedestrian>
        <walkingareas value="0"/>
    </pedestrian>

</configuration>
-->

<net version="1.16" junctionCornerDetail="5" limitTurnSpeed="5.50" xmlns:xsi="http://www.w3.org/2001/XMLSchema-instance" xsi:noNamespaceSchemaLocation="http://sumo.dlr.de/xsd/net_file.xsd">

    <location netOffset="10630519.27,-3468404.93" convBoundary="1307.25,148.33,3642.87,4719.92" origBoundary="-95.520732,29.726209,-95.448164,29.763054" projParameter="+proj=merc +a=6378137 +b=6378137 +lat_ts=0.0 +lon_0=0.0 +x_0=0.0 +y_0=0 +k=1.0 +units=m +nadgrids=@null +wktext +no_defs"/>

    <type id="highway.primary" priority="12" numLanes="2" speed="27.78" disallow="tram rail_urban rail rail_electric rail_fast ship" oneway="0"/>
    <type id="highway.primary_link" priority="7" numLanes="1" speed="22.22" disallow="tram rail_urban rail rail_electric rail_fast ship" oneway="0"/>
    <type id="highway.secondary" priority="11" numLanes="1" speed="27.78" disallow="tram rail_urban rail rail_electric rail_fast ship" oneway="0"/>
    <type id="highway.secondary_link" priority="6" numLanes="1" speed="22.22" disallow="tram rail_urban rail rail_electric rail_fast ship" oneway="0"/>
    <type id="highway.tertiary" priority="10" numLanes="1" speed="22.22" disallow="tram rail_urban rail rail_electric rail_fast ship" oneway="0"/>
    <type id="highway.tertiary_link" priority="5" numLanes="1" speed="22.22" disallow="tram rail_urban rail rail_electric rail_fast ship" oneway="0"/>
    <type id="highway.unclassified" priority="4" numLanes="1" speed="13.89" disallow="tram rail_urban rail rail_electric rail_fast ship" oneway="0"/>

    <edge id=":1031308683#0-AddedOnRampNode_0" function="internal">
        <lane id=":1031308683#0-AddedOnRampNode_0_0" index="0" disallow="tram rail_urban rail rail_electric rail_fast ship" speed="27.78" length="8.00" shape="2586.00,3078.35 2578.00,3078.11"/>
        <lane id=":1031308683#0-AddedOnRampNode_0_1" index="1" disallow="tram rail_urban rail rail_electric rail_fast ship" speed="27.78" length="8.00" shape="2586.10,3075.15 2578.10,3074.91"/>
        <lane id=":1031308683#0-AddedOnRampNode_0_2" index="2" disallow="tram rail_urban rail rail_electric rail_fast ship" speed="27.78" length="8.00" shape="2586.20,3071.95 2578.20,3071.71"/>
    </edge>
    <edge id=":10316651675_0" function="internal">
        <lane id=":10316651675_0_0" index="0" disallow="tram rail_urban rail rail_electric rail_fast ship" speed="27.78" length="8.54" shape="3201.58,1560.65 3202.04,1563.12 3203.12,1564.67 3204.20,1566.22 3204.66,1568.69"/>
        <lane id=":10316651675_0_1" index="1" disallow="tram rail_urban rail rail_electric rail_fast ship" speed="27.78" length="8.54" shape="3198.38,1560.60 3198.84,1563.07 3199.92,1564.63 3201.00,1566.18 3201.46,1568.65"/>
        <lane id=":10316651675_0_2" index="2" disallow="tram rail_urban rail rail_electric rail_fast ship" speed="27.78" length="8.54" shape="3198.38,1560.60 3198.26,1568.60"/>
    </edge>
    <edge id=":10316651675_3" function="internal">
        <lane id=":10316651675_3_0" index="0" disallow="tram rail_urban rail rail_electric rail_fast ship" speed="27.78" length="8.54" shape="3191.86,1568.51 3191.40,1566.04 3190.32,1564.49 3189.24,1562.94 3188.78,1560.47"/>
        <lane id=":10316651675_3_1" index="1" disallow="tram rail_urban rail rail_electric rail_fast ship" speed="27.78" length="8.54" shape="3195.06,1568.56 3194.60,1566.09 3193.52,1564.54 3192.44,1562.98 3191.98,1560.51"/>
        <lane id=":10316651675_3_2" index="2" disallow="tram rail_urban rail rail_electric rail_fast ship" speed="27.78" length="8.54" shape="3195.06,1568.56 3195.18,1560.56"/>
    </edge>
    <edge id=":10316651676_0" function="internal">
        <lane id=":10316651676_0_0" index="0" disallow="tram rail_urban rail rail_electric rail_fast ship" speed="27.78" length="8.00" shape="3187.84,1894.77 3187.71,1902.77"/>
        <lane id=":10316651676_0_1" index="1" disallow="tram rail_urban rail rail_electric rail_fast ship" speed="27.78" length="8.00" shape="3184.64,1894.72 3184.51,1902.72"/>
    </edge>
    <edge id=":10316651676_2" function="internal">
        <lane id=":10316651676_2_0" index="0" disallow="tram rail_urban rail rail_electric rail_fast ship" speed="27.78" length="8.54" shape="3178.11,1902.61 3177.66,1900.14 3176.58,1898.58 3175.51,1897.03 3175.05,1894.56"/>
        <lane id=":10316651676_2_1" index="1" disallow="tram rail_urban rail rail_electric rail_fast ship" speed="27.78" length="8.54" shape="3181.31,1902.66 3180.85,1900.19 3179.78,1898.64 3178.71,1897.08 3178.25,1894.61"/>
        <lane id=":10316651676_2_2" index="2" disallow="tram rail_urban rail rail_electric rail_fast ship" speed="27.78" length="8.54" shape="3181.31,1902.66 3181.45,1894.66"/>
    </edge>
    <edge id=":10536406521_0" function="internal">
        <lane id=":10536406521_0_0" index="0" disallow="tram rail_urban rail rail_electric rail_fast ship" speed="15.65" length="8.21" shape="3261.40,1852.09 3258.99,1852.16 3257.35,1852.59 3255.71,1853.03 3253.30,1853.10"/>
        <lane id=":10536406521_0_1" index="1" disallow="tram rail_urban rail rail_electric rail_fast ship" speed="15.65" length="8.21" shape="3261.63,1848.90 3259.22,1848.97 3257.58,1849.40 3255.94,1849.83 3253.54,1849.91"/>
        <lane id=":10536406521_0_2" index="2" disallow="tram rail_urban rail rail_electric rail_fast ship" speed="15.65" length="8.21" shape="3261.87,1845.71 3259.46,1845.78 3257.82,1846.21 3256.18,1846.64 3253.77,1846.72"/>
        <lane id=":10536406521_0_3" index="3" disallow="tram rail_urban rail rail_electric rail_fast ship" speed="15.65" length="8.21" shape="3262.10,1842.52 3259.69,1842.59 3258.05,1843.02 3256.41,1843.45 3254.01,1843.52"/>
        <lane id=":10536406521_0_4" index="4" disallow="tram rail_urban rail rail_electric rail_fast ship" speed="15.65" length="8.21" shape="3262.10,1842.52 3259.73,1842.09 3258.17,1841.42 3256.61,1840.76 3254.24,1840.33"/>
    </edge>
    <edge id=":1081590611-AddedOffRampNode_0" function="internal">
        <lane id=":1081590611-AddedOffRampNode_0_0" index="0" disallow="tram rail_urban rail rail_electric rail_fast ship" speed="22.22" length="8.27" shape="2331.62,1188.30 2329.58,1189.76 2328.62,1191.39 2327.66,1193.02 2325.61,1194.48"/>
        <lane id=":1081590611-AddedOffRampNode_0_1" index="1" disallow="tram rail_urban rail rail_electric rail_fast ship" speed="22.22" length="8.27" shape="2331.62,1188.30 2324.31,1191.55"/>
        <lane id=":1081590611-AddedOffRampNode_0_2" index="2" disallow="tram rail_urban rail rail_electric rail_fast ship" speed="22.22" length="8.27" shape="2330.33,1185.37 2323.02,1188.63"/>
    </edge>
    <edge id=":1207829481_0" function="internal">
        <lane id=":1207829481_0_0" index="0" disallow="tram rail_urban rail rail_electric rail_fast ship" speed="22.22" length="8.20" shape="2752.58,1156.41 2750.18,1156.65 2748.56,1157.19 2746.95,1157.72 2744.54,1157.94"/>
        <lane id=":1207829481_0_1" index="1" disallow="tram rail_urban rail rail_electric rail_fast ship" speed="22.22" length="8.20" shape="2752.59,1153.21 2750.20,1153.45 2748.59,1153.99 2746.99,1154.52 2744.59,1154.74"/>
        <lane id=":1207829481_0_2" index="2" disallow="tram rail_urban rail rail_electric rail_fast ship" speed="22.22" length="8.20" shape="2752.59,1153.21 2750.21,1152.95 2748.62,1152.39 2747.03,1151.82 2744.64,1151.54"/>
    </edge>
    <edge id=":151536360_0" function="internal">
        <lane id=":151536360_0_0" index="0" disallow="tram rail_urban rail rail_electric rail_fast ship" speed="22.22" length="0.10" shape="2566.48,2548.32 2566.48,2548.32"/>
    </edge>
    <edge id=":151568576_0" function="internal">
        <lane id=":151568576_0_0" index="0" disallow="tram rail_urban rail rail_electric rail_fast ship" speed="27.78" length="8.52" shape="3162.97,3001.07 3163.39,3003.54 3164.44,3005.10 3165.50,3006.67 3165.93,3009.14"/>
        <lane id=":151568576_0_1" index="1" disallow="tram rail_urban rail rail_electric rail_fast ship" speed="27.78" length="8.52" shape="3159.77,3000.97 3160.19,3003.44 3161.24,3005.01 3162.30,3006.58 3162.73,3009.05"/>
        <lane id=":151568576_0_2" index="2" disallow="tram rail_urban rail rail_electric rail_fast ship" speed="27.78" length="8.52" shape="3159.77,3000.97 3159.53,3008.96"/>
    </edge>
    <edge id=":151568576_3" function="internal">
        <lane id=":151568576_3_0" index="0" disallow="tram rail_urban rail rail_electric rail_fast ship" speed="27.78" length="8.02" shape="3153.13,3008.79 3153.37,3000.76"/>
        <lane id=":151568576_3_1" index="1" disallow="tram rail_urban rail rail_electric rail_fast ship" speed="27.78" length="8.02" shape="3156.33,3008.87 3156.57,3000.87"/>
    </edge>
    <edge id=":151612823_0" function="internal">
        <lane id=":151612823_0_0" index="0" disallow="tram rail_urban rail rail_electric rail_fast ship" speed="5.96" length="9.09" shape="1960.75,1513.69 1958.16,1514.04 1956.57,1515.14 1955.96,1516.97 1956.35,1519.56"/>
    </edge>
    <edge id=":151612823_1" function="internal">
        <lane id=":151612823_1_0" index="0" disallow="tram rail_urban rail rail_electric rail_fast ship" speed="15.65" length="10.07" shape="1960.75,1513.69 1950.77,1513.67"/>
        <lane id=":151612823_1_1" index="1" disallow="tram rail_urban rail rail_electric rail_fast ship" speed="15.65" length="10.07" shape="1960.77,1510.49 1950.73,1510.47"/>
        <lane id=":151612823_1_2" index="2" disallow="tram rail_urban rail rail_electric rail_fast ship" speed="15.65" length="10.07" shape="1960.79,1507.29 1950.69,1507.27"/>
        <lane id=":151612823_1_3" index="3" disallow="tram rail_urban rail rail_electric rail_fast ship" speed="15.65" length="10.07" shape="1960.81,1504.09 1950.64,1504.07"/>
    </edge>
    <edge id=":151612916_0" function="internal">
        <lane id=":151612916_0_0" index="0" disallow="tram rail_urban rail rail_electric rail_fast ship" speed="15.65" length="10.92" shape="1567.81,1507.38 1557.17,1507.10"/>
        <lane id=":151612916_0_1" index="1" disallow="tram rail_urban rail rail_electric rail_fast ship" speed="15.65" length="10.92" shape="1568.01,1504.19 1557.18,1503.90"/>
        <lane id=":151612916_0_2" index="2" disallow="tram rail_urban rail rail_electric rail_fast ship" speed="15.65" length="10.92" shape="1568.20,1500.99 1557.19,1500.70"/>
        <lane id=":151612916_0_3" index="3" disallow="tram rail_urban rail rail_electric rail_fast ship" speed="15.65" length="10.92" shape="1568.40,1497.80 1557.21,1497.50"/>
    </edge>
    <edge id=":151612916_4" function="internal">
        <lane id=":151612916_4_0" index="0" disallow="tram rail_urban rail rail_electric rail_fast ship" speed="6.35" length="13.90" shape="1560.46,1493.00 1563.33,1496.38 1563.74,1498.79 1561.69,1500.23 1557.19,1500.70"/>
        <lane id=":151612916_4_1" index="1" disallow="tram rail_urban rail rail_electric rail_fast ship" speed="5.26" length="9.00" shape="1560.46,1493.00 1562.05,1494.98 1562.04,1496.39 1560.43,1497.23 1557.21,1497.50"/>
    </edge>
    <edge id=":151641730_0" function="internal">
        <lane id=":151641730_0_0" index="0" disallow="tram rail_urban rail rail_electric rail_fast ship" speed="6.87" length="17.96" shape="1961.65,1497.95 1957.15,1494.39 1956.28,1491.86 1959.03,1490.35 1965.41,1489.86"/>
        <lane id=":151641730_0_1" index="1" disallow="tram rail_urban rail rail_electric rail_fast ship" speed="5.70" length="11.79" shape="1961.65,1497.95 1959.02,1495.80 1958.77,1494.26 1960.89,1493.35 1965.40,1493.06"/>
    </edge>
    <edge id=":151641730_2" function="internal">
        <lane id=":151641730_2_0" index="0" disallow="tram rail_urban rail rail_electric rail_fast ship" speed="15.65" length="11.12" shape="1954.64,1483.09 1965.44,1483.46"/>
        <lane id=":151641730_2_1" index="1" disallow="tram rail_urban rail rail_electric rail_fast ship" speed="15.65" length="11.12" shape="1954.41,1486.29 1965.42,1486.66"/>
        <lane id=":151641730_2_2" index="2" disallow="tram rail_urban rail rail_electric rail_fast ship" speed="15.65" length="11.12" shape="1954.19,1489.48 1965.41,1489.86"/>
        <lane id=":151641730_2_3" index="3" disallow="tram rail_urban rail rail_electric rail_fast ship" speed="15.65" length="11.12" shape="1953.97,1492.67 1965.40,1493.06"/>
    </edge>
    <edge id=":151747323_0" function="internal">
        <lane id=":151747323_0_0" index="0" disallow="tram rail_urban rail rail_electric rail_fast ship" speed="15.65" length="8.97" shape="1903.50,1479.63 1912.68,1480.18"/>
        <lane id=":151747323_0_1" index="1" disallow="tram rail_urban rail rail_electric rail_fast ship" speed="15.65" length="8.97" shape="1903.43,1482.83 1912.46,1483.37"/>
        <lane id=":151747323_0_2" index="2" disallow="tram rail_urban rail rail_electric rail_fast ship" speed="15.65" length="8.97" shape="1903.36,1486.02 1912.24,1486.56"/>
        <lane id=":151747323_0_3" index="3" disallow="tram rail_urban rail rail_electric rail_fast ship" speed="15.65" length="8.97" shape="1903.29,1489.22 1912.02,1489.76"/>
    </edge>
    <edge id=":151747323_4" function="internal">
        <lane id=":151747323_4_0" index="0" disallow="tram rail_urban rail rail_electric rail_fast ship" speed="8.95" length="7.99" shape="1903.23,1492.42 1905.92,1492.60 1908.07,1493.00 1909.69,1493.62 1910.77,1494.46"/>
    </edge>
    <edge id=":151747370_0" function="internal">
        <lane id=":151747370_0_0" index="0" disallow="tram rail_urban rail rail_electric rail_fast ship" speed="22.22" length="9.59" shape="2212.65,1227.93 2209.55,1228.45 2207.44,1229.41 2205.37,1230.06 2202.40,1229.67"/>
        <lane id=":151747370_0_1" index="1" disallow="tram rail_urban rail rail_electric rail_fast ship" speed="22.22" length="9.59" shape="2212.59,1224.73 2209.79,1225.25 2207.89,1226.22 2206.03,1226.91 2203.34,1226.61"/>
        <lane id=":151747370_0_2" index="2" disallow="tram rail_urban rail rail_electric rail_fast ship" speed="22.22" length="9.59" shape="2212.59,1224.73 2210.09,1224.75 2208.37,1224.63 2206.68,1224.27 2204.27,1223.56"/>
    </edge>
    <edge id=":152108295_0" function="internal">
        <lane id=":152108295_0_0" index="0" disallow="tram rail_urban rail rail_electric rail_fast ship" speed="27.78" length="8.19" shape="2125.38,1131.95 2125.61,1134.36 2126.13,1135.98 2126.64,1137.60 2126.83,1140.01"/>
        <lane id=":152108295_0_1" index="1" disallow="tram rail_urban rail rail_electric rail_fast ship" speed="27.78" length="8.19" shape="2122.18,1131.92 2122.41,1134.31 2122.93,1135.92 2123.44,1137.53 2123.63,1139.92"/>
        <lane id=":152108295_0_2" index="2" disallow="tram rail_urban rail rail_electric rail_fast ship" speed="27.78" length="8.19" shape="2122.18,1131.92 2121.91,1134.30 2121.33,1135.88 2120.74,1137.46 2120.43,1139.83"/>
    </edge>
    <edge id=":152115103_0" function="internal">
        <lane id=":152115103_0_0" index="0" disallow="tram rail_urban rail rail_electric rail_fast ship" speed="22.22" length="6.14" shape="2761.39,1449.26 2760.68,1447.67 2760.15,1446.61 2759.54,1445.58 2758.58,1444.13"/>
        <lane id=":152115103_0_1" index="1" disallow="tram rail_urban rail rail_electric rail_fast ship" speed="22.22" length="6.14" shape="2764.32,1447.96 2763.54,1446.23 2762.96,1445.06 2762.29,1443.94 2761.24,1442.35"/>
    </edge>
    <edge id=":152115103_2" function="internal">
        <lane id=":152115103_2_0" index="0" disallow="tram rail_urban rail rail_electric rail_fast ship" speed="22.22" length="7.53" shape="2763.90,1440.57 2765.58,1442.20 2767.25,1442.84 2768.82,1443.55 2770.16,1445.36"/>
        <lane id=":152115103_2_1" index="1" disallow="tram rail_urban rail rail_electric rail_fast ship" speed="22.22" length="7.53" shape="2763.90,1440.57 2765.04,1442.30 2765.76,1443.51 2766.39,1444.78 2767.24,1446.66"/>
    </edge>
    <edge id=":152204265_0" function="internal">
        <lane id=":152204265_0_0" index="0" disallow="tram rail_urban rail rail_electric rail_fast ship" speed="8.16" length="11.74" shape="2754.17,3064.24 2750.80,3061.62 2747.95,3060.04 2745.65,3059.49 2743.87,3059.98"/>
    </edge>
    <edge id=":152204265_1" function="internal">
        <lane id=":152204265_1_0" index="0" disallow="tram rail_urban rail rail_electric rail_fast ship" speed="14.76" length="23.81" shape="2754.17,3064.24 2750.63,3060.26 2748.13,3055.32 2746.67,3049.42 2746.27,3042.56"/>
    </edge>
    <edge id=":152204265_2" function="internal">
        <lane id=":152204265_2_0" index="0" disallow="tram rail_urban rail rail_electric rail_fast ship" speed="5.67" length="11.08" shape="2754.17,3064.24 2752.02,3061.86 2751.93,3060.20 2753.90,3059.25 2757.92,3059.02"/>
    </edge>
    <edge id=":152204265_3" function="internal">
        <lane id=":152204265_3_0" index="0" disallow="tram rail_urban rail rail_electric rail_fast ship" speed="7.61" length="12.63" shape="2752.67,3042.67 2752.95,3046.97 2753.94,3050.07 2755.65,3051.95 2758.08,3052.63"/>
        <lane id=":152204265_3_1" index="1" disallow="tram rail_urban rail rail_electric rail_fast ship" speed="8.91" length="17.70" shape="2749.47,3042.62 2749.92,3048.31 2751.50,3052.41 2754.19,3054.92 2758.00,3055.83"/>
    </edge>
    <edge id=":152204265_5" function="internal">
        <lane id=":152204265_5_0" index="0" disallow="tram rail_urban rail rail_electric rail_fast ship" speed="12.30" length="18.83" shape="2749.47,3042.62 2749.04,3048.87 2747.96,3053.84 2746.24,3057.55 2743.87,3059.98"/>
    </edge>
    <edge id=":152204265_6" function="internal">
        <lane id=":152204265_6_0" index="0" disallow="tram rail_urban rail rail_electric rail_fast ship" speed="3.65" length="4.67" shape="2749.47,3042.62 2748.65,3043.80 2747.84,3044.19 2747.05,3043.78 2746.27,3042.56"/>
    </edge>
    <edge id=":152204265_7" function="internal">
        <lane id=":152204265_7_0" index="0" disallow="tram rail_urban rail rail_electric rail_fast ship" speed="8.30" length="12.31" shape="2737.51,3049.94 2741.31,3048.68 2744.04,3047.02 2745.69,3044.99 2746.27,3042.56"/>
    </edge>
    <edge id=":152204265_8" function="internal">
        <lane id=":152204265_8_0" index="0" disallow="tram rail_urban rail rail_electric rail_fast ship" speed="27.78" length="19.25" shape="2737.51,3049.94 2743.51,3049.27 2747.68,3050.25 2751.91,3051.74 2758.08,3052.63"/>
        <lane id=":152204265_8_1" index="1" disallow="tram rail_urban rail rail_electric rail_fast ship" speed="27.78" length="19.25" shape="2739.31,3052.79 2744.78,3052.27 2748.55,3053.37 2752.38,3054.93 2758.00,3055.83"/>
        <lane id=":152204265_8_2" index="2" disallow="tram rail_urban rail rail_electric rail_fast ship" speed="27.78" length="19.25" shape="2741.12,3055.64 2746.05,3055.27 2749.43,3056.48 2752.85,3058.11 2757.92,3059.02"/>
    </edge>
    <edge id=":152204265_11" function="internal">
        <lane id=":152204265_11_0" index="0" disallow="tram rail_urban rail rail_electric rail_fast ship" speed="4.55" length="7.50" shape="2741.12,3055.64 2743.43,3055.69 2744.66,3056.43 2744.81,3057.86 2743.87,3059.98"/>
    </edge>
    <edge id=":152204276_0" function="internal">
        <lane id=":152204276_0_0" index="0" disallow="tram rail_urban rail rail_electric rail_fast ship" speed="6.77" length="9.60" shape="2767.37,2531.42 2764.81,2531.83 2762.95,2532.96 2761.82,2534.84 2761.39,2537.44"/>
    </edge>
    <edge id=":152204276_1" function="internal">
        <lane id=":152204276_1_0" index="0" disallow="tram rail_urban rail rail_electric rail_fast ship" speed="22.22" length="19.46" shape="2767.37,2531.42 2762.90,2531.55 2757.59,2531.93 2752.38,2532.70 2748.18,2533.99"/>
    </edge>
    <edge id=":152204276_2" function="internal">
        <lane id=":152204276_2_0" index="0" disallow="tram rail_urban rail rail_electric rail_fast ship" speed="8.79" length="18.09" shape="2767.37,2531.42 2762.03,2530.83 2758.27,2528.92 2756.12,2525.67 2755.55,2521.10"/>
    </edge>
    <edge id=":152204276_3" function="internal">
        <lane id=":152204276_3_0" index="0" disallow="tram rail_urban rail rail_electric rail_fast ship" speed="3.65" length="4.67" shape="2767.37,2531.42 2766.16,2530.64 2765.75,2529.84 2766.14,2529.04 2767.33,2528.22"/>
    </edge>
    <edge id=":152204276_4" function="internal">
        <lane id=":152204276_4_0" index="0" disallow="tram rail_urban rail rail_electric rail_fast ship" speed="6.69" length="10.03" shape="2761.95,2521.38 2762.17,2524.40 2763.14,2526.55 2764.86,2527.82 2767.33,2528.22"/>
    </edge>
    <edge id=":152204276_5" function="internal">
        <lane id=":152204276_5_0" index="0" disallow="tram rail_urban rail rail_electric rail_fast ship" speed="22.22" length="16.10" shape="2761.95,2521.38 2761.39,2537.44"/>
        <lane id=":152204276_5_1" index="1" disallow="tram rail_urban rail rail_electric rail_fast ship" speed="22.22" length="16.10" shape="2758.75,2521.24 2758.19,2537.37"/>
    </edge>
    <edge id=":152204276_7" function="internal">
        <lane id=":152204276_7_0" index="0" disallow="tram rail_urban rail rail_electric rail_fast ship" speed="10.98" length="17.42" shape="2758.75,2521.24 2757.96,2525.02 2755.93,2528.40 2752.67,2531.39 2748.18,2533.99"/>
    </edge>
    <edge id=":152204276_8" function="internal">
        <lane id=":152204276_8_0" index="0" disallow="tram rail_urban rail rail_electric rail_fast ship" speed="3.65" length="1.44" shape="2758.75,2521.24 2757.90,2522.40"/>
    </edge>
    <edge id=":152204276_17" function="internal">
        <lane id=":152204276_17_0" index="0" disallow="tram rail_urban rail rail_electric rail_fast ship" speed="3.65" length="3.23" shape="2757.90,2522.40 2757.08,2522.77 2756.30,2522.33 2755.55,2521.10"/>
    </edge>
    <edge id=":152204276_9" function="internal">
        <lane id=":152204276_9_0" index="0" disallow="tram rail_urban rail rail_electric rail_fast ship" speed="5.82" length="9.13" shape="2749.48,2524.78 2752.03,2525.56 2753.89,2525.21 2755.07,2523.72 2755.55,2521.10"/>
    </edge>
    <edge id=":152204276_10" function="internal">
        <lane id=":152204276_10_0" index="0" disallow="tram rail_urban rail rail_electric rail_fast ship" speed="22.22" length="18.39" shape="2749.48,2524.78 2755.04,2526.95 2759.62,2527.97 2763.59,2528.25 2767.33,2528.22"/>
    </edge>
    <edge id=":152204276_11" function="internal">
        <lane id=":152204276_11_0" index="0" disallow="tram rail_urban rail rail_electric rail_fast ship" speed="9.71" length="4.02" shape="2748.12,2527.68 2751.66,2529.58"/>
    </edge>
    <edge id=":152204276_12" function="internal">
        <lane id=":152204276_12_0" index="0" disallow="tram rail_urban rail rail_electric rail_fast ship" speed="5.53" length="3.79" shape="2748.12,2527.68 2750.66,2529.26 2751.04,2529.96"/>
    </edge>
    <edge id=":152204276_18" function="internal">
        <lane id=":152204276_18_0" index="0" disallow="tram rail_urban rail rail_electric rail_fast ship" speed="9.71" length="10.60" shape="2751.66,2529.58 2752.57,2530.07 2755.73,2532.48 2757.60,2534.91 2758.19,2537.37"/>
    </edge>
    <edge id=":152204276_19" function="internal">
        <lane id=":152204276_19_0" index="0" disallow="tram rail_urban rail rail_electric rail_fast ship" speed="5.53" length="5.74" shape="2751.04,2529.96 2751.51,2530.84 2750.69,2532.42 2748.18,2533.99"/>
    </edge>
    <edge id=":152204276_13" function="internal">
        <lane id=":152204276_13_0" index="0" disallow="tram rail_urban rail rail_electric rail_fast ship" speed="5.95" length="9.98" shape="2754.99,2537.30 2754.62,2534.62 2753.36,2533.18 2751.21,2532.97 2748.18,2533.99"/>
    </edge>
    <edge id=":152204276_14" function="internal">
        <lane id=":152204276_14_0" index="0" disallow="tram rail_urban rail rail_electric rail_fast ship" speed="22.22" length="16.21" shape="2754.99,2537.30 2755.55,2521.10"/>
    </edge>
    <edge id=":152204276_15" function="internal">
        <lane id=":152204276_15_0" index="0" disallow="tram rail_urban rail rail_electric rail_fast ship" speed="8.87" length="17.23" shape="2754.99,2537.30 2755.84,2533.38 2758.18,2530.56 2762.01,2528.84 2767.33,2528.22"/>
    </edge>
    <edge id=":152204276_16" function="internal">
        <lane id=":152204276_16_0" index="0" disallow="tram rail_urban rail rail_electric rail_fast ship" speed="3.65" length="4.67" shape="2754.99,2537.30 2755.82,2536.12 2756.63,2535.73 2757.42,2536.15 2758.19,2537.37"/>
    </edge>
    <edge id=":152204299_0" function="internal">
        <lane id=":152204299_0_0" index="0" disallow="tram rail_urban rail rail_electric rail_fast ship" speed="6.61" length="9.24" shape="2783.42,1499.66 2783.78,1502.21 2784.84,1504.04 2786.59,1505.15 2789.04,1505.53"/>
    </edge>
    <edge id=":152204299_1" function="internal">
        <lane id=":152204299_1_0" index="0" disallow="tram rail_urban rail rail_electric rail_fast ship" speed="22.22" length="21.59" shape="2783.42,1499.66 2782.92,1506.49 2781.74,1512.16 2780.52,1516.88 2779.87,1520.90"/>
    </edge>
    <edge id=":152204299_2" function="internal">
        <lane id=":152204299_2_0" index="0" disallow="tram rail_urban rail rail_electric rail_fast ship" speed="3.65" length="1.44" shape="2780.22,1499.68 2779.42,1500.88"/>
    </edge>
    <edge id=":152204299_13" function="internal">
        <lane id=":152204299_13_0" index="0" disallow="tram rail_urban rail rail_electric rail_fast ship" speed="3.65" length="3.23" shape="2779.42,1500.88 2778.63,1501.29 2777.82,1500.89 2777.02,1499.69"/>
    </edge>
    <edge id=":152204299_3" function="internal">
        <lane id=":152204299_3_0" index="0" disallow="tram rail_urban rail rail_electric rail_fast ship" speed="7.25" length="11.69" shape="2765.04,1505.19 2768.90,1504.91 2771.64,1503.90 2773.28,1502.17 2773.82,1499.71"/>
    </edge>
    <edge id=":152204299_4" function="internal">
        <lane id=":152204299_4_0" index="0" disallow="tram rail_urban rail rail_electric rail_fast ship" speed="22.22" length="24.05" shape="2765.04,1505.19 2789.04,1505.53"/>
        <lane id=":152204299_4_1" index="1" disallow="tram rail_urban rail rail_electric rail_fast ship" speed="22.22" length="24.05" shape="2764.98,1508.39 2789.01,1508.73"/>
        <lane id=":152204299_4_2" index="2" disallow="tram rail_urban rail rail_electric rail_fast ship" speed="22.22" length="24.05" shape="2764.93,1511.59 2788.99,1511.93"/>
        <lane id=":152204299_4_3" index="3" disallow="tram rail_urban rail rail_electric rail_fast ship" speed="22.22" length="24.05" shape="2764.87,1514.79 2788.96,1515.13"/>
    </edge>
    <edge id=":152204299_8" function="internal">
        <lane id=":152204299_8_0" index="0" disallow="tram rail_urban rail rail_electric rail_fast ship" speed="8.78" length="17.60" shape="2764.87,1514.79 2771.52,1515.27 2776.23,1516.45 2779.02,1518.33 2779.87,1520.90"/>
    </edge>
    <edge id=":152204299_9" function="internal">
        <lane id=":152204299_9_0" index="0" disallow="tram rail_urban rail rail_electric rail_fast ship" speed="22.22" length="21.25" shape="2770.28,1520.52 2771.02,1514.23 2772.23,1509.91 2773.35,1505.70 2773.82,1499.71"/>
        <lane id=":152204299_9_1" index="1" disallow="tram rail_urban rail rail_electric rail_fast ship" speed="22.22" length="21.25" shape="2773.47,1520.65 2774.21,1514.30 2775.43,1509.94 2776.55,1505.69 2777.02,1499.69"/>
    </edge>
    <edge id=":152204299_11" function="internal">
        <lane id=":152204299_11_0" index="0" disallow="tram rail_urban rail rail_electric rail_fast ship" speed="8.26" length="14.83" shape="2776.67,1520.77 2777.53,1518.27 2779.86,1516.49 2783.67,1515.45 2788.96,1515.13"/>
    </edge>
    <edge id=":152204299_12" function="internal">
        <lane id=":152204299_12_0" index="0" disallow="tram rail_urban rail rail_electric rail_fast ship" speed="3.65" length="4.67" shape="2776.67,1520.77 2777.52,1519.61 2778.33,1519.24 2779.12,1519.67 2779.87,1520.90"/>
    </edge>
    <edge id=":152204320_0" function="internal">
        <lane id=":152204320_0_0" index="0" disallow="tram rail_urban rail rail_electric rail_fast ship" speed="8.00" length="11.57" shape="2715.97,1165.63 2714.47,1162.29 2712.66,1159.98 2710.52,1158.69 2708.06,1158.43"/>
        <lane id=":152204320_0_1" index="1" disallow="tram rail_urban rail rail_electric rail_fast ship" speed="9.27" length="15.86" shape="2719.00,1164.58 2716.98,1160.22 2714.43,1157.21 2711.36,1155.55 2707.76,1155.24"/>
    </edge>
    <edge id=":152204320_2" function="internal">
        <lane id=":152204320_2_0" index="0" disallow="tram rail_urban rail rail_electric rail_fast ship" speed="3.65" length="4.67" shape="2719.00,1164.58 2719.36,1163.19 2719.98,1162.54 2720.87,1162.66 2722.02,1163.53"/>
    </edge>