<?xml version="1.0" ?>
<routes xmlns:xsi="&quot;http://www.w3.org/2001/XMLSchema-instance&quot;" xsi:noNamespaceSchemaLocation="&quot;http://sumo.dlr.de/xsd/routes_file.xsd&quot;">
	<vehicle id="0" depart="0">
		<route edges="978715536"/>
	</vehicle>
	<vehicle id="1" depart="2">
		<route edges="755435068"/>
	</vehicle>
	<vehicle id="2" depart="3">
		<route edges="968816564#0"/>
	</vehicle>
	<vehicle id="3" depart="4">
		<route edges="312826086"/>
	</vehicle>
	<vehicle id="4" depart="5">
		<route edges="423505994#0"/>
	</vehicle>
	<vehicle id="5" depart="5">
		<route edges="981165359#0"/>
	</vehicle>
	<vehicle id="6" depart="6">
		<route edges="597602686#0"/>
	</vehicle>
	<vehicle id="7" depart="6">
		<route edges="597602686#13"/>
	</vehicle>
	<vehicle id="8" depart="7">
		<route edges="478554548#0"/>
	</vehicle>
	<vehicle id="9" depart="8">
		<route edges="1081590615"/>
	</vehicle>
	<vehicle id="10" depart="8">
		<route edges="423506029#0"/>
	</vehicle>
	<vehicle id="11" depart="9">
		<route edges="442372081#5"/>
	</vehicle>
	<vehicle id="12" depart="9">
		<route edges="442372081#0"/>
	</vehicle>
	<vehicle id="13" depart="14">
		<route edges="-268118792#10"/>
	</vehicle>
	<vehicle id="14" depart="15">
		<route edges="442372090-AddedOffRampEdge"/>
	</vehicle>
	<vehicle id="15" depart="18">
		<route edges="-15458116"/>
	</vehicle>
	<vehicle id="16" depart="19">
		<route edges="846813573#1"/>
	</vehicle>
	<vehicle id="17" depart="27">
		<route edges="988583021#3"/>
	</vehicle>
	<vehicle id="18" depart="30">
		<route edges="268118792#0"/>
	</vehicle>
	<vehicle id="19" depart="30">
		<route edges="908435480#0"/>
	</vehicle>
	<vehicle id="20" depart="36">
		<route edges="-15389730#20"/>
	</vehicle>
	<vehicle id="21" depart="37">
		<route edges="423487304#0"/>
	</vehicle>
	<vehicle id="22" depart="46">
		<route edges="908436859#0"/>
	</vehicle>
	<vehicle id="23" depart="48">
		<route edges="808587433#0"/>
	</vehicle>
	<vehicle id="24" depart="51">
		<route edges="968816562#0"/>
	</vehicle>
	<vehicle id="25" depart="51">
		<route edges="1013862585#7"/>
	</vehicle>
	<vehicle id="26" depart="54">
		<route edges="597602686#0"/>
	</vehicle>
	<vehicle id="27" depart="55">
		<route edges="15422879#0"/>
	</vehicle>
	<vehicle id="28" depart="58">
		<route edges="423487305#0"/>
	</vehicle>
	<vehicle id="29" depart="61">
		<route edges="-683976549#1"/>
	</vehicle>
	<vehicle id="30" depart="62">
		<route edges="962816052#0"/>
	</vehicle>
	<vehicle id="31" depart="65">
		<route edges="1031308683#0"/>
	</vehicle>
	<vehicle id="32" depart="72">
		<route edges="423487293#0"/>
	</vehicle>
	<vehicle id="33" depart="73">
		<route edges="978715537#0"/>
	</vehicle>
	<vehicle id="34" depart="78">
		<route edges="423487259#0"/>
	</vehicle>
	<vehicle id="35" depart="80">
		<route edges="1081590611-AddedOffRampEdge"/>
	</vehicle>
	<vehicle id="36" depart="82">
		<route edges="846855219#0"/>
	</vehicle>
	<vehicle id="37" depart="82">
		<route edges="-755435067#3"/>
	</vehicle>
	<vehicle id="38" depart="83">
		<route edges="423487354#0"/>
	</vehicle>
	<vehicle id="39" depart="87">
		<route edges="423487463"/>
	</vehicle>
	<vehicle id="40" depart="87">
		<route edges="423487429#0"/>
	</vehicle>
	<vehicle id="41" depart="88">
		<route edges="423487434#0"/>
	</vehicle>
	<vehicle id="42" depart="88">
		<route edges="15435154#0"/>
	</vehicle>
	<vehicle id="43" depart="90">
		<route edges="104717225#0"/>
	</vehicle>
	<vehicle id="44" depart="96">
		<route edges="978715537#0"/>
	</vehicle>
	<vehicle id="45" depart="97">
		<route edges="423506035"/>
	</vehicle>
	<vehicle id="46" depart="102">
		<route edges="954632489"/>
	</vehicle>
	<vehicle id="47" depart="102">
		<route edges="423487255#0"/>
	</vehicle>
	<vehicle id="48" depart="103">
		<route edges="908435480#0"/>
	</vehicle>
	<vehicle id="49" depart="107">
		<route edges="1081590610#0"/>
	</vehicle>
	<vehicle id="50" depart="108">
		<route edges="1072974806"/>
	</vehicle>
	<vehicle id="51" depart="110">
		<route edges="1013862585#7"/>
	</vehicle>
	<vehicle id="52" depart="111">
		<route edges="683889359#8"/>
	</vehicle>
	<vehicle id="53" depart="111">
		<route edges="268118792#14"/>
	</vehicle>
	<vehicle id="54" depart="115">
		<route edges="746893258#0"/>
	</vehicle>
	<vehicle id="55" depart="120">
		<route edges="746893257#0"/>
	</vehicle>
	<vehicle id="56" depart="126">
		<route edges="290026884"/>
	</vehicle>
	<vehicle id="57" depart="128">
		<route edges="423487419#0"/>
	</vehicle>
	<vehicle id="58" depart="130">
		<route edges="981165358#0"/>
	</vehicle>
	<vehicle id="59" depart="133">
		<route edges="-755435067#3"/>
	</vehicle>
	<vehicle id="60" depart="138">
		<route edges="-15438674#3"/>
	</vehicle>
	<vehicle id="61" depart="141">
		<route edges="423487304#0"/>
	</vehicle>
	<vehicle id="62" depart="144">
		<route edges="312826086"/>
	</vehicle>
	<vehicle id="63" depart="144">
		<route edges="423505999#3"/>
	</vehicle>
	<vehicle id="64" depart="145">
		<route edges="1026416107"/>
	</vehicle>
	<vehicle id="65" depart="145">
		<route edges="423487444#0"/>
	</vehicle>
	<vehicle id="66" depart="147">
		<route edges="-683889359#6"/>
	</vehicle>
	<vehicle id="67" depart="150">
		<route edges="908435482#0"/>
	</vehicle>
	<vehicle id="68" depart="150">
		<route edges="683889359#8"/>
	</vehicle>
	<vehicle id="69" depart="153">
		<route edges="981165357#0"/>
	</vehicle>
	<vehicle id="70" depart="158">
		<route edges="962896468#0"/>
	</vehicle>
	<vehicle id="71" depart="159">
		<route edges="478554548#1"/>
	</vehicle>
	<vehicle id="72" depart="159">
		<route edges="423487375#0"/>
	</vehicle>
	<vehicle id="73" depart="161">
		<route edges="423487419#2-AddedOffRampEdge"/>
	</vehicle>
	<vehicle id="74" depart="164">
		<route edges="423487450#0"/>
	</vehicle>
	<vehicle id="75" depart="164">
		<route edges="423487463"/>
	</vehicle>
	<vehicle id="76" depart="167">
		<route edges="1013862585#7"/>
	</vehicle>
	<vehicle id="77" depart="167">
		<route edges="423487429#0"/>
	</vehicle>
	<vehicle id="78" depart="174">
		<route edges="746893259#0"/>
	</vehicle>
	<vehicle id="79" depart="176">
		<route edges="423487436#0"/>
	</vehicle>
	<vehicle id="80" depart="179">
		<route edges="423487461"/>
	</vehicle>
	<vehicle id="81" depart="181">
		<route edges="994901460#0"/>
	</vehicle>
	<vehicle id="82" depart="183">
		<route edges="746893260"/>
	</vehicle>
	<vehicle id="83" depart="183">
		<route edges="-232045940#5"/>
	</vehicle>
	<vehicle id="84" depart="186">
		<route edges="442372093#1"/>
	</vehicle>
	<vehicle id="85" depart="188">
		<route edges="1130568089#0"/>
	</vehicle>
	<vehicle id="86" depart="189">
		<route edges="423487257#0"/>
	</vehicle>
	<vehicle id="87" depart="190">
		<route edges="1013862585#7"/>
	</vehicle>
	<vehicle id="88" depart="193">
		<route edges="423487438#1"/>
	</vehicle>
	<vehicle id="89" depart="197">
		<route edges="808587437#0"/>
	</vehicle>
	<vehicle id="90" depart="199">
		<route edges="994901463#0"/>
	</vehicle>
	<vehicle id="91" depart="204">
		<route edges="423506029#0"/>
	</vehicle>
	<vehicle id="92" depart="209">
		<route edges="808587433#0"/>
	</vehicle>
	<vehicle id="93" depart="209">
		<route edges="846857036#3"/>
	</vehicle>
	<vehicle id="94" depart="211">
		<route edges="-15435154#5"/>
	</vehicle>
	<vehicle id="95" depart="211">
		<route edges="423505996#0"/>
	</vehicle>
	<vehicle id="96" depart="215">
		<route edges="423487307#3"/>
	</vehicle>
	<vehicle id="97" depart="226">
		<route edges="423487421#0"/>
	</vehicle>
	<vehicle id="98" depart="227">
		<route edges="442372090"/>
	</vehicle>
	<vehicle id="99" depart="228">
		<route edges="981165358#0"/>
	</vehicle>
	<vehicle id="100" depart="235">
		<route edges="908436863#1"/>
	</vehicle>
	<vehicle id="101" depart="236">
		<route edges="846857039#0"/>
	</vehicle>
	<vehicle id="102" depart="243">
		<route edges="15366554#9"/>
	</vehicle>
	<vehicle id="103" depart="247">
		<route edges="423487448#0"/>
	</vehicle>
	<vehicle id="104" depart="255">
		<route edges="423487294"/>
	</vehicle>
	<vehicle id="105" depart="263">
		<route edges="423487392#0"/>
	</vehicle>
	<vehicle id="106" depart="263">
		<route edges="423487259#0"/>
	</vehicle>
	<vehicle id="107" depart="263">
		<route edges="755435065#0"/>
	</vehicle>
	<vehicle id="108" depart="270">
		<route edges="981165358#0"/>
	</vehicle>
	<vehicle id="109" depart="271">
		<route edges="908435481#0"/>
	</vehicle>
	<vehicle id="110" depart="275">
		<route edges="962896467#4"/>
	</vehicle>
	<vehicle id="111" depart="276">
		<route edges="1042572824#0"/>
	</vehicle>
	<vehicle id="112" depart="277">
		<route edges="846813573#1"/>
	</vehicle>
	<vehicle id="113" depart="284">
		<route edges="423505999#0"/>
	</vehicle>
	<vehicle id="114" depart="287">
		<route edges="597528979#0"/>
	</vehicle>
	<vehicle id="115" depart="292">
		<route edges="287525280#15"/>
	</vehicle>
	<vehicle id="116" depart="297">
		<route edges="423487258#0"/>
	</vehicle>
	<vehicle id="117" depart="307">
		<route edges="312826086"/>
	</vehicle>
	<vehicle id="118" depart="318">
		<route edges="423487386#0"/>
	</vehicle>
	<vehicle id="119" depart="323">
		<route edges="846857035#0"/>
	</vehicle>
	<vehicle id="120" depart="327">
		<route edges="423487375#0-AddedOffRampEdge"/>
	</vehicle>
	<vehicle id="121" depart="331">
		<route edges="1031308682"/>
	</vehicle>
	<vehicle id="122" depart="332">
		<route edges="423487254"/>
	</vehicle>
	<vehicle id="123" depart="339">
		<route edges="423487442#0"/>
	</vehicle>
	<vehicle id="124" depart="342">
		<route edges="423487449#0"/>
	</vehicle>
	<vehicle id="125" depart="343">
		<route edges="260359943#0"/>
	</vehicle>
	<vehicle id="126" depart="343">
		<route edges="746893258#0"/>
	</vehicle>
	<vehicle id="127" depart="344">
		<route edges="423487259#0"/>
	</vehicle>
	<vehicle id="128" depart="347">
		<route edges="442372093#0"/>
	</vehicle>
	<vehicle id="129" depart="356">
		<route edges="846817704#0"/>
	</vehicle>
	<vehicle id="130" depart="356">
		<route edges="962816053#0"/>
	</vehicle>
	<vehicle id="131" depart="356">
		<route edges="968816563#0"/>
	</vehicle>
	<vehicle id="132" depart="358">
		<route edges="691318132#9"/>
	</vehicle>
	<vehicle id="133" depart="360">
		<route edges="201688966"/>
	</vehicle>
	<vehicle id="134" depart="361">
		<route edges="423487450#3"/>
	</vehicle>
	<vehicle id="135" depart="365">
		<route edges="423487434#0"/>
	</vehicle>
	<vehicle id="136" depart="366">
		<route edges="423487432"/>
	</vehicle>
	<vehicle id="137" depart="366">
		<route edges="-556603473#2"/>
	</vehicle>
	<vehicle id="138" depart="368">
		<route edges="908436859#0"/>
	</vehicle>
	<vehicle id="139" depart="372">
		<route edges="1031308682"/>
	</vehicle>
	<vehicle id="140" depart="374">
		<route edges="-746893258#1"/>
	</vehicle>
	<vehicle id="141" depart="383">
		<route edges="442372082"/>
	</vehicle>
	<vehicle id="142" depart="384">
		<route edges="846857038#0"/>
	</vehicle>
	<vehicle id="143" depart="385">
		<route edges="755435068"/>
	</vehicle>
	<vehicle id="144" depart="395">
		<route edges="746893260"/>
	</vehicle>
	<vehicle id="145" depart="396">
		<route edges="908435479#0"/>
	</vehicle>
	<vehicle id="146" depart="397">
		<route edges="15415651#0"/>
	</vehicle>
	<vehicle id="147" depart="398">
		<route edges="908436862#0"/>
	</vehicle>
	<vehicle id="148" depart="400">
		<route edges="423487447#0"/>
	</vehicle>
	<vehicle id="149" depart="400">
		<route edges="962896467#4"/>
	</vehicle>
</routes>
